                                   MODFLOW 6
                U.S. GEOLOGICAL SURVEY MODULAR HYDROLOGIC MODEL
                   VERSION 6.2.2 release candidate 03/29/2021
                               ***DEVELOP MODE***

   MODFLOW 6 compiled Mar 29 2021 02:46:40 with IFORT compiler (ver. 20.21.1)

This software is preliminary or provisional and is subject to 
revision. It is being provided to meet the need for timely best 
science. The software has not received final approval by the U.S. 
Geological Survey (USGS). No warranty, expressed or implied, is made 
by the USGS or the U.S. Government as to the functionality of the 
software and related material nor shall the fact of release 
constitute any such warranty. The software is provided on the 
condition that neither the USGS nor the U.S. Government shall be held 
liable for any damages resulting from the authorized or unauthorized 
use of the software.

 
 Run start date and time (yyyy/mm/dd hh:mm:ss): 2023/01/06 14:14:17
 
 Writing simulation list file: mfsim.lst
 Using Simulation name file: mfsim.nam
 
    Solving:  Stress period:     1    Time step:     1
    Solving:  Stress period:     2    Time step:     1
    Solving:  Stress period:     3    Time step:     1
    Solving:  Stress period:     4    Time step:     1
    Solving:  Stress period:     5    Time step:     1
    Solving:  Stress period:     6    Time step:     1
    Solving:  Stress period:     7    Time step:     1
    Solving:  Stress period:     8    Time step:     1
    Solving:  Stress period:     9    Time step:     1
    Solving:  Stress period:    10    Time step:     1
    Solving:  Stress period:    11    Time step:     1
    Solving:  Stress period:    12    Time step:     1
    Solving:  Stress period:    13    Time step:     1
    Solving:  Stress period:    14    Time step:     1
    Solving:  Stress period:    15    Time step:     1
    Solving:  Stress period:    16    Time step:     1
    Solving:  Stress period:    17    Time step:     1
    Solving:  Stress period:    18    Time step:     1
    Solving:  Stress period:    19    Time step:     1
    Solving:  Stress period:    20    Time step:     1
    Solving:  Stress period:    21    Time step:     1
    Solving:  Stress period:    22    Time step:     1
    Solving:  Stress period:    23    Time step:     1
    Solving:  Stress period:    24    Time step:     1
    Solving:  Stress period:    25    Time step:     1
    Solving:  Stress period:    26    Time step:     1
    Solving:  Stress period:    27    Time step:     1
    Solving:  Stress period:    28    Time step:     1
    Solving:  Stress period:    29    Time step:     1
    Solving:  Stress period:    30    Time step:     1
    Solving:  Stress period:    31    Time step:     1
    Solving:  Stress period:    32    Time step:     1
    Solving:  Stress period:    33    Time step:     1
    Solving:  Stress period:    34    Time step:     1
    Solving:  Stress period:    35    Time step:     1
    Solving:  Stress period:    36    Time step:     1
    Solving:  Stress period:    37    Time step:     1
    Solving:  Stress period:    38    Time step:     1
    Solving:  Stress period:    39    Time step:     1
    Solving:  Stress period:    40    Time step:     1
    Solving:  Stress period:    41    Time step:     1
    Solving:  Stress period:    42    Time step:     1
    Solving:  Stress period:    43    Time step:     1
    Solving:  Stress period:    44    Time step:     1
    Solving:  Stress period:    45    Time step:     1
    Solving:  Stress period:    46    Time step:     1
    Solving:  Stress period:    47    Time step:     1
    Solving:  Stress period:    48    Time step:     1
    Solving:  Stress period:    49    Time step:     1
    Solving:  Stress period:    50    Time step:     1
    Solving:  Stress period:    51    Time step:     1
    Solving:  Stress period:    52    Time step:     1
    Solving:  Stress period:    53    Time step:     1
    Solving:  Stress period:    54    Time step:     1
    Solving:  Stress period:    55    Time step:     1
    Solving:  Stress period:    56    Time step:     1
    Solving:  Stress period:    57    Time step:     1
    Solving:  Stress period:    58    Time step:     1
    Solving:  Stress period:    59    Time step:     1
    Solving:  Stress period:    60    Time step:     1
    Solving:  Stress period:    61    Time step:     1
    Solving:  Stress period:    62    Time step:     1
    Solving:  Stress period:    63    Time step:     1
    Solving:  Stress period:    64    Time step:     1
    Solving:  Stress period:    65    Time step:     1
    Solving:  Stress period:    66    Time step:     1
    Solving:  Stress period:    67    Time step:     1
    Solving:  Stress period:    68    Time step:     1
    Solving:  Stress period:    69    Time step:     1
    Solving:  Stress period:    70    Time step:     1
    Solving:  Stress period:    71    Time step:     1
    Solving:  Stress period:    72    Time step:     1
    Solving:  Stress period:    73    Time step:     1
    Solving:  Stress period:    74    Time step:     1
    Solving:  Stress period:    75    Time step:     1
    Solving:  Stress period:    76    Time step:     1
    Solving:  Stress period:    77    Time step:     1
    Solving:  Stress period:    78    Time step:     1
    Solving:  Stress period:    79    Time step:     1
    Solving:  Stress period:    80    Time step:     1
    Solving:  Stress period:    81    Time step:     1
    Solving:  Stress period:    82    Time step:     1
    Solving:  Stress period:    83    Time step:     1
    Solving:  Stress period:    84    Time step:     1
    Solving:  Stress period:    85    Time step:     1
    Solving:  Stress period:    86    Time step:     1
    Solving:  Stress period:    87    Time step:     1
    Solving:  Stress period:    88    Time step:     1
    Solving:  Stress period:    89    Time step:     1
    Solving:  Stress period:    90    Time step:     1
    Solving:  Stress period:    91    Time step:     1
    Solving:  Stress period:    92    Time step:     1
    Solving:  Stress period:    93    Time step:     1
    Solving:  Stress period:    94    Time step:     1
    Solving:  Stress period:    95    Time step:     1
    Solving:  Stress period:    96    Time step:     1
    Solving:  Stress period:    97    Time step:     1
    Solving:  Stress period:    98    Time step:     1
    Solving:  Stress period:    99    Time step:     1
    Solving:  Stress period:   100    Time step:     1
    Solving:  Stress period:   101    Time step:     1
    Solving:  Stress period:   102    Time step:     1
    Solving:  Stress period:   103    Time step:     1
    Solving:  Stress period:   104    Time step:     1
    Solving:  Stress period:   105    Time step:     1
    Solving:  Stress period:   106    Time step:     1
    Solving:  Stress period:   107    Time step:     1
    Solving:  Stress period:   108    Time step:     1
    Solving:  Stress period:   109    Time step:     1
    Solving:  Stress period:   110    Time step:     1
    Solving:  Stress period:   111    Time step:     1
    Solving:  Stress period:   112    Time step:     1
    Solving:  Stress period:   113    Time step:     1
    Solving:  Stress period:   114    Time step:     1
    Solving:  Stress period:   115    Time step:     1
    Solving:  Stress period:   116    Time step:     1
    Solving:  Stress period:   117    Time step:     1
    Solving:  Stress period:   118    Time step:     1
    Solving:  Stress period:   119    Time step:     1
    Solving:  Stress period:   120    Time step:     1
    Solving:  Stress period:   121    Time step:     1
    Solving:  Stress period:   122    Time step:     1
    Solving:  Stress period:   123    Time step:     1
    Solving:  Stress period:   124    Time step:     1
    Solving:  Stress period:   125    Time step:     1
    Solving:  Stress period:   126    Time step:     1
    Solving:  Stress period:   127    Time step:     1
    Solving:  Stress period:   128    Time step:     1
    Solving:  Stress period:   129    Time step:     1
    Solving:  Stress period:   130    Time step:     1
    Solving:  Stress period:   131    Time step:     1
    Solving:  Stress period:   132    Time step:     1
    Solving:  Stress period:   133    Time step:     1
    Solving:  Stress period:   134    Time step:     1
    Solving:  Stress period:   135    Time step:     1
    Solving:  Stress period:   136    Time step:     1
    Solving:  Stress period:   137    Time step:     1
    Solving:  Stress period:   138    Time step:     1
    Solving:  Stress period:   139    Time step:     1
    Solving:  Stress period:   140    Time step:     1
    Solving:  Stress period:   141    Time step:     1
    Solving:  Stress period:   142    Time step:     1
    Solving:  Stress period:   143    Time step:     1
    Solving:  Stress period:   144    Time step:     1
    Solving:  Stress period:   145    Time step:     1
    Solving:  Stress period:   146    Time step:     1
    Solving:  Stress period:   147    Time step:     1
    Solving:  Stress period:   148    Time step:     1
    Solving:  Stress period:   149    Time step:     1
    Solving:  Stress period:   150    Time step:     1
    Solving:  Stress period:   151    Time step:     1
    Solving:  Stress period:   152    Time step:     1
    Solving:  Stress period:   153    Time step:     1
    Solving:  Stress period:   154    Time step:     1
    Solving:  Stress period:   155    Time step:     1
    Solving:  Stress period:   156    Time step:     1
    Solving:  Stress period:   157    Time step:     1
    Solving:  Stress period:   158    Time step:     1
    Solving:  Stress period:   159    Time step:     1
    Solving:  Stress period:   160    Time step:     1
    Solving:  Stress period:   161    Time step:     1
    Solving:  Stress period:   162    Time step:     1
    Solving:  Stress period:   163    Time step:     1
    Solving:  Stress period:   164    Time step:     1
    Solving:  Stress period:   165    Time step:     1
    Solving:  Stress period:   166    Time step:     1
    Solving:  Stress period:   167    Time step:     1
    Solving:  Stress period:   168    Time step:     1
    Solving:  Stress period:   169    Time step:     1
    Solving:  Stress period:   170    Time step:     1
    Solving:  Stress period:   171    Time step:     1
    Solving:  Stress period:   172    Time step:     1
    Solving:  Stress period:   173    Time step:     1
    Solving:  Stress period:   174    Time step:     1
    Solving:  Stress period:   175    Time step:     1
    Solving:  Stress period:   176    Time step:     1
    Solving:  Stress period:   177    Time step:     1
    Solving:  Stress period:   178    Time step:     1
    Solving:  Stress period:   179    Time step:     1
    Solving:  Stress period:   180    Time step:     1
    Solving:  Stress period:   181    Time step:     1
    Solving:  Stress period:   182    Time step:     1
    Solving:  Stress period:   183    Time step:     1
    Solving:  Stress period:   184    Time step:     1
    Solving:  Stress period:   185    Time step:     1
    Solving:  Stress period:   186    Time step:     1
    Solving:  Stress period:   187    Time step:     1
    Solving:  Stress period:   188    Time step:     1
    Solving:  Stress period:   189    Time step:     1
    Solving:  Stress period:   190    Time step:     1
    Solving:  Stress period:   191    Time step:     1
    Solving:  Stress period:   192    Time step:     1
    Solving:  Stress period:   193    Time step:     1
    Solving:  Stress period:   194    Time step:     1
    Solving:  Stress period:   195    Time step:     1
    Solving:  Stress period:   196    Time step:     1
    Solving:  Stress period:   197    Time step:     1
    Solving:  Stress period:   198    Time step:     1
    Solving:  Stress period:   199    Time step:     1
    Solving:  Stress period:   200    Time step:     1
    Solving:  Stress period:   201    Time step:     1
    Solving:  Stress period:   202    Time step:     1
    Solving:  Stress period:   203    Time step:     1
    Solving:  Stress period:   204    Time step:     1
    Solving:  Stress period:   205    Time step:     1
    Solving:  Stress period:   206    Time step:     1
    Solving:  Stress period:   207    Time step:     1
    Solving:  Stress period:   208    Time step:     1
    Solving:  Stress period:   209    Time step:     1
    Solving:  Stress period:   210    Time step:     1
    Solving:  Stress period:   211    Time step:     1
    Solving:  Stress period:   212    Time step:     1
    Solving:  Stress period:   213    Time step:     1
    Solving:  Stress period:   214    Time step:     1
    Solving:  Stress period:   215    Time step:     1
    Solving:  Stress period:   216    Time step:     1
    Solving:  Stress period:   217    Time step:     1
    Solving:  Stress period:   218    Time step:     1
    Solving:  Stress period:   219    Time step:     1
    Solving:  Stress period:   220    Time step:     1
    Solving:  Stress period:   221    Time step:     1
    Solving:  Stress period:   222    Time step:     1
    Solving:  Stress period:   223    Time step:     1
    Solving:  Stress period:   224    Time step:     1
    Solving:  Stress period:   225    Time step:     1
    Solving:  Stress period:   226    Time step:     1
    Solving:  Stress period:   227    Time step:     1
    Solving:  Stress period:   228    Time step:     1
    Solving:  Stress period:   229    Time step:     1
    Solving:  Stress period:   230    Time step:     1
    Solving:  Stress period:   231    Time step:     1
    Solving:  Stress period:   232    Time step:     1
    Solving:  Stress period:   233    Time step:     1
    Solving:  Stress period:   234    Time step:     1
    Solving:  Stress period:   235    Time step:     1
    Solving:  Stress period:   236    Time step:     1
    Solving:  Stress period:   237    Time step:     1
    Solving:  Stress period:   238    Time step:     1
    Solving:  Stress period:   239    Time step:     1
    Solving:  Stress period:   240    Time step:     1
    Solving:  Stress period:   241    Time step:     1
    Solving:  Stress period:   242    Time step:     1
    Solving:  Stress period:   243    Time step:     1
    Solving:  Stress period:   244    Time step:     1
    Solving:  Stress period:   245    Time step:     1
    Solving:  Stress period:   246    Time step:     1
    Solving:  Stress period:   247    Time step:     1
    Solving:  Stress period:   248    Time step:     1
    Solving:  Stress period:   249    Time step:     1
    Solving:  Stress period:   250    Time step:     1
    Solving:  Stress period:   251    Time step:     1
    Solving:  Stress period:   252    Time step:     1
    Solving:  Stress period:   253    Time step:     1
    Solving:  Stress period:   254    Time step:     1
    Solving:  Stress period:   255    Time step:     1
    Solving:  Stress period:   256    Time step:     1
    Solving:  Stress period:   257    Time step:     1
    Solving:  Stress period:   258    Time step:     1
    Solving:  Stress period:   259    Time step:     1
    Solving:  Stress period:   260    Time step:     1
    Solving:  Stress period:   261    Time step:     1
    Solving:  Stress period:   262    Time step:     1
    Solving:  Stress period:   263    Time step:     1
    Solving:  Stress period:   264    Time step:     1
    Solving:  Stress period:   265    Time step:     1
    Solving:  Stress period:   266    Time step:     1
    Solving:  Stress period:   267    Time step:     1
    Solving:  Stress period:   268    Time step:     1
    Solving:  Stress period:   269    Time step:     1
    Solving:  Stress period:   270    Time step:     1
    Solving:  Stress period:   271    Time step:     1
    Solving:  Stress period:   272    Time step:     1
    Solving:  Stress period:   273    Time step:     1
    Solving:  Stress period:   274    Time step:     1
    Solving:  Stress period:   275    Time step:     1
    Solving:  Stress period:   276    Time step:     1
    Solving:  Stress period:   277    Time step:     1
    Solving:  Stress period:   278    Time step:     1
    Solving:  Stress period:   279    Time step:     1
    Solving:  Stress period:   280    Time step:     1
    Solving:  Stress period:   281    Time step:     1
    Solving:  Stress period:   282    Time step:     1
    Solving:  Stress period:   283    Time step:     1
    Solving:  Stress period:   284    Time step:     1
    Solving:  Stress period:   285    Time step:     1
    Solving:  Stress period:   286    Time step:     1
    Solving:  Stress period:   287    Time step:     1
    Solving:  Stress period:   288    Time step:     1
    Solving:  Stress period:   289    Time step:     1
    Solving:  Stress period:   290    Time step:     1
    Solving:  Stress period:   291    Time step:     1
    Solving:  Stress period:   292    Time step:     1
    Solving:  Stress period:   293    Time step:     1
    Solving:  Stress period:   294    Time step:     1
    Solving:  Stress period:   295    Time step:     1
    Solving:  Stress period:   296    Time step:     1
    Solving:  Stress period:   297    Time step:     1
    Solving:  Stress period:   298    Time step:     1
    Solving:  Stress period:   299    Time step:     1
    Solving:  Stress period:   300    Time step:     1
    Solving:  Stress period:   301    Time step:     1
    Solving:  Stress period:   302    Time step:     1
    Solving:  Stress period:   303    Time step:     1
    Solving:  Stress period:   304    Time step:     1
    Solving:  Stress period:   305    Time step:     1
    Solving:  Stress period:   306    Time step:     1
    Solving:  Stress period:   307    Time step:     1
    Solving:  Stress period:   308    Time step:     1
    Solving:  Stress period:   309    Time step:     1
    Solving:  Stress period:   310    Time step:     1
    Solving:  Stress period:   311    Time step:     1
    Solving:  Stress period:   312    Time step:     1
    Solving:  Stress period:   313    Time step:     1
    Solving:  Stress period:   314    Time step:     1
    Solving:  Stress period:   315    Time step:     1
    Solving:  Stress period:   316    Time step:     1
    Solving:  Stress period:   317    Time step:     1
    Solving:  Stress period:   318    Time step:     1
    Solving:  Stress period:   319    Time step:     1
    Solving:  Stress period:   320    Time step:     1
    Solving:  Stress period:   321    Time step:     1
    Solving:  Stress period:   322    Time step:     1
    Solving:  Stress period:   323    Time step:     1
    Solving:  Stress period:   324    Time step:     1
    Solving:  Stress period:   325    Time step:     1
    Solving:  Stress period:   326    Time step:     1
    Solving:  Stress period:   327    Time step:     1
    Solving:  Stress period:   328    Time step:     1
    Solving:  Stress period:   329    Time step:     1
    Solving:  Stress period:   330    Time step:     1
    Solving:  Stress period:   331    Time step:     1
    Solving:  Stress period:   332    Time step:     1
    Solving:  Stress period:   333    Time step:     1
    Solving:  Stress period:   334    Time step:     1
    Solving:  Stress period:   335    Time step:     1
    Solving:  Stress period:   336    Time step:     1
    Solving:  Stress period:   337    Time step:     1
    Solving:  Stress period:   338    Time step:     1
    Solving:  Stress period:   339    Time step:     1
    Solving:  Stress period:   340    Time step:     1
    Solving:  Stress period:   341    Time step:     1
    Solving:  Stress period:   342    Time step:     1
    Solving:  Stress period:   343    Time step:     1
    Solving:  Stress period:   344    Time step:     1
    Solving:  Stress period:   345    Time step:     1
    Solving:  Stress period:   346    Time step:     1
    Solving:  Stress period:   347    Time step:     1
    Solving:  Stress period:   348    Time step:     1
    Solving:  Stress period:   349    Time step:     1
    Solving:  Stress period:   350    Time step:     1
    Solving:  Stress period:   351    Time step:     1
    Solving:  Stress period:   352    Time step:     1
    Solving:  Stress period:   353    Time step:     1
    Solving:  Stress period:   354    Time step:     1
    Solving:  Stress period:   355    Time step:     1
    Solving:  Stress period:   356    Time step:     1
    Solving:  Stress period:   357    Time step:     1
    Solving:  Stress period:   358    Time step:     1
    Solving:  Stress period:   359    Time step:     1
    Solving:  Stress period:   360    Time step:     1
    Solving:  Stress period:   361    Time step:     1
    Solving:  Stress period:   362    Time step:     1
    Solving:  Stress period:   363    Time step:     1
    Solving:  Stress period:   364    Time step:     1
    Solving:  Stress period:   365    Time step:     1
