                                   MODFLOW 6
                U.S. GEOLOGICAL SURVEY MODULAR HYDROLOGIC MODEL
                          GROUNDWATER FLOW MODEL (GWF)
                   VERSION 6.2.2 release candidate 03/29/2021
                               ***DEVELOP MODE***

   MODFLOW 6 compiled Mar 29 2021 02:46:40 with IFORT compiler (ver. 20.21.1)

This software is preliminary or provisional and is subject to 
revision. It is being provided to meet the need for timely best 
science. The software has not received final approval by the U.S. 
Geological Survey (USGS). No warranty, expressed or implied, is made 
by the USGS or the U.S. Government as to the functionality of the 
software and related material nor shall the fact of release 
constitute any such warranty. The software is provided on the 
condition that neither the USGS nor the U.S. Government shall be held 
liable for any damages resulting from the authorized or unauthorized 
use of the software.


System command used to initiate simulation:
C:\Users\mka483\Miniconda3\envs\GEB\python.exe c:\Users\mka483\.vscode\extensions\ms-python.python-2022.18.2\pythonFiles\lib\python\debugpy\launcher/../..\debugpy --connect 127.0.0.1:51523 --configure-qt none --adapter-access-token b3738e86f13064885b6e6326eef9430f5fca28e9df7f6fdf80f6b099cef1e628 run.py --headless --scenario spinup --config sanctuary.yml

MODFLOW was compiled using uniform precision.

Real Variables
  KIND: 8
  TINY (smallest non-zero value):    2.225074-308
  HUGE (largest value):    1.797693+308
  PRECISION: 15
  BIT SIZE: 64

Integer Variables
  KIND: 4
  HUGE (largest value): 2147483647
  BIT SIZE: 32

Long Integer Variables
  KIND: 8
  HUGE (largest value): 9223372036854775807
  BIT SIZE: 64

Logical Variables
  KIND: 4
  BIT SIZE: 32
 

 OPENED .\TRANSIENT.dis
 FILE TYPE:DIS6                   UNIT 1006   STATUS:OLD                 
 FORMAT:FORMATTED              ACCESS:SEQUENTIAL          
 ACTION:READ                


 OPENED .\TRANSIENT.ic
 FILE TYPE:IC6                    UNIT 1007   STATUS:OLD                 
 FORMAT:FORMATTED              ACCESS:SEQUENTIAL          
 ACTION:READ                


 OPENED .\TRANSIENT.npf
 FILE TYPE:NPF6                   UNIT 1008   STATUS:OLD                 
 FORMAT:FORMATTED              ACCESS:SEQUENTIAL          
 ACTION:READ                


 OPENED .\TRANSIENT.oc
 FILE TYPE:OC6                    UNIT 1009   STATUS:OLD                 
 FORMAT:FORMATTED              ACCESS:SEQUENTIAL          
 ACTION:READ                


 OPENED .\TRANSIENT.sto
 FILE TYPE:STO6                   UNIT 1010   STATUS:OLD                 
 FORMAT:FORMATTED              ACCESS:SEQUENTIAL          
 ACTION:READ                


 OPENED .\TRANSIENT.rch
 FILE TYPE:RCH6                   UNIT 1011   STATUS:OLD                 
 FORMAT:FORMATTED              ACCESS:SEQUENTIAL          
 ACTION:READ                


 OPENED .\TRANSIENT.wel
 FILE TYPE:WEL6                   UNIT 1012   STATUS:OLD                 
 FORMAT:FORMATTED              ACCESS:SEQUENTIAL          
 ACTION:READ                


 OPENED .\TRANSIENT.drn
 FILE TYPE:DRN6                   UNIT 1013   STATUS:OLD                 
 FORMAT:FORMATTED              ACCESS:SEQUENTIAL          
 ACTION:READ                

 NAMEFILE OPTIONS:
    NEWTON-RAPHSON method enabled for the model.
    NEWTON-RAPHSON UNDER-RELAXATION based on the bottom elevation of the model will be applied to the model.

 DIS -- STRUCTURED GRID DISCRETIZATION PACKAGE, VERSION 2 : 3/27/2014 - INPUT READ FROM UNIT 1006


 # File generated by Flopy version 3.3.5 on 12/07/2022 at 13:22:42.
 PROCESSING DISCRETIZATION OPTIONS
    BINARY GRB FILE WILL NOT BE WRITTEN
 END OF DISCRETIZATION OPTIONS
 MODEL LENGTH UNIT IS UNDEFINED
 PROCESSING DISCRETIZATION DIMENSIONS
    NLAY =       1
    NROW =      29
    NCOL =      51
 END OF DISCRETIZATION DIMENSIONS
 PROCESSING GRIDDATA

                     DELR =   1000.000    

                     DELC =   1000.000    
 END PROCESSING GRIDDATA

 THE SPECIFIED IDOMAIN RESULTS IN A REDUCED NUMBER OF CELLS.
 NUMBER OF USER NODES: 1479
 NUMBER OF NODES IN SOLUTION: 720



 NPF -- NODE PROPERTY FLOW PACKAGE, VERSION 1, 3/30/2015 INPUT READ FROM UNIT 1008


 # File generated by Flopy version 3.3.5 on 12/07/2022 at 13:22:42.
 PROCESSING NPF OPTIONS
    CELL-BY-CELL FLOW INFORMATION WILL BE SAVED TO BINARY FILE WHENEVER ICBCFL IS NOT ZERO.
 END OF NPF OPTIONS

 WEL   -- WEL PACKAGE, VERSION 8, 2/22/2014 INPUT READ FROM UNIT 1012
 # File generated by Flopy version 3.3.5 on 12/07/2022 at 13:22:42.

 PROCESSING WEL OPTIONS
    AUTOMATIC FLOW REDUCTION OF WELLS IMPLEMENTED.
    AUTOMATIC FLOW REDUCTION FRACTION (  0.1000000    ).
 END OF WEL OPTIONS

 PROCESSING WEL DIMENSIONS
    MAXBOUND =     720
 END OF WEL DIMENSIONS

 DRN   -- DRN PACKAGE, VERSION 8, 2/22/2014 INPUT READ FROM UNIT 1013
 # File generated by Flopy version 3.3.5 on 12/07/2022 at 13:22:42.

 PROCESSING DRN OPTIONS
 END OF DRN OPTIONS

 PROCESSING DRN DIMENSIONS
    MAXBOUND =     720
 END OF DRN DIMENSIONS

 RCH   -- RCH PACKAGE, VERSION 8, 2/22/2014 INPUT READ FROM UNIT 1011
 # File generated by Flopy version 3.3.5 on 12/07/2022 at 13:22:42.

 PROCESSING RCH OPTIONS
 END OF RCH OPTIONS

 PROCESSING RCH DIMENSIONS
    MAXBOUND =     720
 END OF RCH DIMENSIONS

 IC -- INITIAL CONDITIONS PACKAGE, VERSION 8, 3/28/2015 INPUT READ FROM UNIT 1007
 # File generated by Flopy version 3.3.5 on 12/07/2022 at 13:22:42.
 PROCESSING GRIDDATA
 END PROCESSING GRIDDATA
 PROCESSING GRIDDATA

                ICELLTYPE = 1
 K33 not provided.  Assuming K33 = K.
 K22 not provided.  Assuming K22 = K.
 END PROCESSING GRIDDATA

 STO -- STORAGE PACKAGE, VERSION 1, 5/19/2014 INPUT READ FROM UNIT 1010


 # File generated by Flopy version 3.3.5 on 12/07/2022 at 13:22:42.
 PROCESSING STORAGE OPTIONS
 END OF STORAGE OPTIONS
 PROCESSING GRIDDATA

                 ICONVERT = 1

         SPECIFIC STORAGE =   0.000000    

           SPECIFIC YIELD =  0.1000000    
 END PROCESSING GRIDDATA
      THE LAST TIME STEP WILL BE PRINTED
      THE LAST TIME STEP WILL BE PRINTED
 # File generated by Flopy version 3.3.5 on 12/07/2022 at 13:22:42.

 PROCESSING OC OPTIONS

    HEAD INFORMATION WILL BE WRITTEN TO:
      UNIT NUMBER: 1015
      FILE NAME: TRANSIENT.hds

 OPENED TRANSIENT.hds
 FILE TYPE:DATA(BINARY)   UNIT 1015   STATUS:REPLACE             
 FORMAT:UNFORMATTED            ACCESS:STREAM              
 ACTION:READWRITE           

 END OF OC OPTIONS

start timestep kper="1" kstp="1" mode="normal"


 BEGIN READING OUTPUT CONTROL FOR STRESS PERIOD 1
      THE FOLLOWING FREQUENCY WILL BE SAVED: 10

 END READING OUTPUT CONTROL FOR STRESS PERIOD 1


 PROCESSING STORAGE PERIOD DATA
 END PROCESSING STORAGE PERIOD DATA


 STRESS PERIOD 1 IS TRANSIENT



  VOLUME BUDGET FOR ENTIRE MODEL AT END OF TIME STEP    1, STRESS PERIOD   1
  ---------------------------------------------------------------------------------------------------

     CUMULATIVE VOLUME      L**3       RATES FOR THIS TIME STEP      L**3/T          PACKAGE NAME    
     ------------------                 ------------------------                     ----------------

           IN:                                      IN:
           ---                                      ---
              STO-SS =           0.0000                STO-SS =           0.0000     STORAGE         
              STO-SY =     3642473.3325                STO-SY =     3642473.3325     STORAGE         
                 WEL =           0.0000                   WEL =           0.0000     WEL_0           
                 DRN =           0.0000                   DRN =           0.0000     DRN_0           
                 RCH =       21909.0322                   RCH =       21909.0322     RCH_0           

            TOTAL IN =     3664382.3647              TOTAL IN =     3664382.3647

          OUT:                                     OUT:
          ----                                     ----
              STO-SS =           0.0000                STO-SS =           0.0000     STORAGE         
              STO-SY =     3649932.9646                STO-SY =     3649932.9646     STORAGE         
                 WEL =       14449.4001                   WEL =       14449.4001     WEL_0           
                 DRN =           0.0000                   DRN =           0.0000     DRN_0           
                 RCH =           0.0000                   RCH =           0.0000     RCH_0           

           TOTAL OUT =     3664382.3647             TOTAL OUT =     3664382.3647

            IN - OUT =       1.5455E-06              IN - OUT =       1.5455E-06

 PERCENT DISCREPANCY =           0.00     PERCENT DISCREPANCY =           0.00




         TIME SUMMARY AT END OF TIME STEP    1 IN STRESS PERIOD    1
                          TIME STEP LENGTH =    1.00000    
                        STRESS PERIOD TIME =    1.00000    
                     TOTAL SIMULATION TIME =    1.00000    

end timestep


start timestep kper="2" kstp="1" mode="normal"


 END OF FILE DETECTED IN OUTPUT CONTROL.
 CURRENT OUTPUT CONTROL SETTINGS WILL BE 
 REPEATED UNTIL THE END OF THE SIMULATION.

 OUTPUT CONTROL FOR STRESS PERIOD 2 IS REPEATED USING SETTINGS FROM A PREVIOUS STRESS PERIOD.


 STRESS PERIOD 2 IS TRANSIENT


 REUSING WELS FROM LAST STRESS PERIOD

 REUSING DRNS FROM LAST STRESS PERIOD

 REUSING RCHS FROM LAST STRESS PERIOD


  VOLUME BUDGET FOR ENTIRE MODEL AT END OF TIME STEP    1, STRESS PERIOD   2
  ---------------------------------------------------------------------------------------------------

     CUMULATIVE VOLUME      L**3       RATES FOR THIS TIME STEP      L**3/T          PACKAGE NAME    
     ------------------                 ------------------------                     ----------------

           IN:                                      IN:
           ---                                      ---
              STO-SS =           0.0000                STO-SS =           0.0000     STORAGE         
              STO-SY =     7266855.9730                STO-SY =     3624382.6405     STORAGE         
                 WEL =           0.0000                   WEL =           0.0000     WEL_0           
                 DRN =           0.0000                   DRN =           0.0000     DRN_0           
                 RCH =       42289.9198                   RCH =       20380.8876     RCH_0           

            TOTAL IN =     7309145.8927              TOTAL IN =     3644763.5280

          OUT:                                     OUT:
          ----                                     ----
              STO-SS =           0.0000                STO-SS =           0.0000     STORAGE         
              STO-SY =     7281038.9501                STO-SY =     3631105.9855     STORAGE         
                 WEL =       28106.9426                   WEL =       13657.5425     WEL_0           
                 DRN =           0.0000                   DRN =           0.0000     DRN_0           
                 RCH =           0.0000                   RCH =           0.0000     RCH_0           

           TOTAL OUT =     7309145.8927             TOTAL OUT =     3644763.5280

            IN - OUT =       1.6475E-06              IN - OUT =       1.0245E-07

 PERCENT DISCREPANCY =           0.00     PERCENT DISCREPANCY =           0.00




         TIME SUMMARY AT END OF TIME STEP    1 IN STRESS PERIOD    2
                          TIME STEP LENGTH =    1.00000    
                        STRESS PERIOD TIME =    1.00000    
                     TOTAL SIMULATION TIME =    2.00000    

end timestep


start timestep kper="3" kstp="1" mode="normal"


 OUTPUT CONTROL FOR STRESS PERIOD 3 IS REPEATED USING SETTINGS FROM A PREVIOUS STRESS PERIOD.


 STRESS PERIOD 3 IS TRANSIENT


 REUSING WELS FROM LAST STRESS PERIOD

 REUSING DRNS FROM LAST STRESS PERIOD

 REUSING RCHS FROM LAST STRESS PERIOD


  VOLUME BUDGET FOR ENTIRE MODEL AT END OF TIME STEP    1, STRESS PERIOD   3
  ---------------------------------------------------------------------------------------------------

     CUMULATIVE VOLUME      L**3       RATES FOR THIS TIME STEP      L**3/T          PACKAGE NAME    
     ------------------                 ------------------------                     ----------------

           IN:                                      IN:
           ---                                      ---
              STO-SS =           0.0000                STO-SS =           0.0000     STORAGE         
              STO-SY =    10873124.0296                STO-SY =     3606268.0567     STORAGE         
                 WEL =           0.0000                   WEL =           0.0000     WEL_0           
                 DRN =           0.0000                   DRN =           0.0000     DRN_0           
                 RCH =       62155.7700                   RCH =       19865.8503     RCH_0           

            TOTAL IN =    10935279.7996              TOTAL IN =     3626133.9069

          OUT:                                     OUT:
          ----                                     ----
              STO-SS =           0.0000                STO-SS =           0.0000     STORAGE         
              STO-SY =    10893392.9563                STO-SY =     3612354.0062     STORAGE         
                 WEL =       41886.8433                   WEL =       13779.9007     WEL_0           
                 DRN =           0.0000                   DRN =           0.0000     DRN_0           
                 RCH =           0.0000                   RCH =           0.0000     RCH_0           

           TOTAL OUT =    10935279.7996             TOTAL OUT =     3626133.9069

            IN - OUT =       1.8384E-06              IN - OUT =       1.8999E-07

 PERCENT DISCREPANCY =           0.00     PERCENT DISCREPANCY =           0.00




         TIME SUMMARY AT END OF TIME STEP    1 IN STRESS PERIOD    3
                          TIME STEP LENGTH =    1.00000    
                        STRESS PERIOD TIME =    1.00000    
                     TOTAL SIMULATION TIME =    3.00000    

end timestep


start timestep kper="4" kstp="1" mode="normal"


 OUTPUT CONTROL FOR STRESS PERIOD 4 IS REPEATED USING SETTINGS FROM A PREVIOUS STRESS PERIOD.


 STRESS PERIOD 4 IS TRANSIENT


 REUSING WELS FROM LAST STRESS PERIOD

 REUSING DRNS FROM LAST STRESS PERIOD

 REUSING RCHS FROM LAST STRESS PERIOD


  VOLUME BUDGET FOR ENTIRE MODEL AT END OF TIME STEP    1, STRESS PERIOD   4
  ---------------------------------------------------------------------------------------------------

     CUMULATIVE VOLUME      L**3       RATES FOR THIS TIME STEP      L**3/T          PACKAGE NAME    
     ------------------                 ------------------------                     ----------------

           IN:                                      IN:
           ---                                      ---
              STO-SS =           0.0000                STO-SS =           0.0000     STORAGE         
              STO-SY =    14461349.7631                STO-SY =     3588225.7334     STORAGE         
                 WEL =           0.0000                   WEL =           0.0000     WEL_0           
                 DRN =           0.0000                   DRN =           0.0000     DRN_0           
                 RCH =       81780.2922                   RCH =       19624.5222     RCH_0           

            TOTAL IN =    14543130.0553              TOTAL IN =     3607850.2556

          OUT:                                     OUT:
          ----                                     ----
              STO-SS =           0.0000                STO-SS =           0.0000     STORAGE         
              STO-SY =    14448302.4277                STO-SY =     3554909.4713     STORAGE         
                 WEL =       54876.0604                   WEL =       12989.2171     WEL_0           
                 DRN =       39951.5672                   DRN =       39951.5672     DRN_0           
                 RCH =           0.0000                   RCH =           0.0000     RCH_0           

           TOTAL OUT =    14543130.0553             TOTAL OUT =     3607850.2556

            IN - OUT =       2.5816E-06              IN - OUT =       7.4366E-07

 PERCENT DISCREPANCY =           0.00     PERCENT DISCREPANCY =           0.00




         TIME SUMMARY AT END OF TIME STEP    1 IN STRESS PERIOD    4
                          TIME STEP LENGTH =    1.00000    
                        STRESS PERIOD TIME =    1.00000    
                     TOTAL SIMULATION TIME =    4.00000    

end timestep


start timestep kper="5" kstp="1" mode="normal"


 OUTPUT CONTROL FOR STRESS PERIOD 5 IS REPEATED USING SETTINGS FROM A PREVIOUS STRESS PERIOD.


 STRESS PERIOD 5 IS TRANSIENT


 REUSING WELS FROM LAST STRESS PERIOD

 REUSING DRNS FROM LAST STRESS PERIOD

 REUSING RCHS FROM LAST STRESS PERIOD


  VOLUME BUDGET FOR ENTIRE MODEL AT END OF TIME STEP    1, STRESS PERIOD   5
  ---------------------------------------------------------------------------------------------------

     CUMULATIVE VOLUME      L**3       RATES FOR THIS TIME STEP      L**3/T          PACKAGE NAME    
     ------------------                 ------------------------                     ----------------

           IN:                                      IN:
           ---                                      ---
              STO-SS =           0.0000                STO-SS =           0.0000     STORAGE         
              STO-SY =    18031574.1454                STO-SY =     3570224.3823     STORAGE         
                 WEL =           0.0000                   WEL =           0.0000     WEL_0           
                 DRN =           0.0000                   DRN =           0.0000     DRN_0           
                 RCH =      101591.7905                   RCH =       19811.4983     RCH_0           

            TOTAL IN =    18133165.9358              TOTAL IN =     3590035.8806

          OUT:                                     OUT:
          ----                                     ----
              STO-SS =           0.0000                STO-SS =           0.0000     STORAGE         
              STO-SY =    17906177.1979                STO-SY =     3457874.7702     STORAGE         
                 WEL =       67884.4603                   WEL =       13008.3999     WEL_0           
                 DRN =      159104.2776                   DRN =      119152.7104     DRN_0           
                 RCH =           0.0000                   RCH =           0.0000     RCH_0           

           TOTAL OUT =    18133165.9358             TOTAL OUT =     3590035.8806

            IN - OUT =       2.8610E-06              IN - OUT =       2.8173E-07

 PERCENT DISCREPANCY =           0.00     PERCENT DISCREPANCY =           0.00




         TIME SUMMARY AT END OF TIME STEP    1 IN STRESS PERIOD    5
                          TIME STEP LENGTH =    1.00000    
                        STRESS PERIOD TIME =    1.00000    
                     TOTAL SIMULATION TIME =    5.00000    

end timestep


start timestep kper="6" kstp="1" mode="normal"


 OUTPUT CONTROL FOR STRESS PERIOD 6 IS REPEATED USING SETTINGS FROM A PREVIOUS STRESS PERIOD.


 STRESS PERIOD 6 IS TRANSIENT


 REUSING WELS FROM LAST STRESS PERIOD

 REUSING DRNS FROM LAST STRESS PERIOD

 REUSING RCHS FROM LAST STRESS PERIOD


  VOLUME BUDGET FOR ENTIRE MODEL AT END OF TIME STEP    1, STRESS PERIOD   6
  ---------------------------------------------------------------------------------------------------

     CUMULATIVE VOLUME      L**3       RATES FOR THIS TIME STEP      L**3/T          PACKAGE NAME    
     ------------------                 ------------------------                     ----------------

           IN:                                      IN:
           ---                                      ---
              STO-SS =           0.0000                STO-SS =           0.0000     STORAGE         
              STO-SY =    21583936.9094                STO-SY =     3552362.7641     STORAGE         
                 WEL =           0.0000                   WEL =           0.0000     WEL_0           
                 DRN =           0.0000                   DRN =           0.0000     DRN_0           
                 RCH =      122096.8096                   RCH =       20505.0191     RCH_0           

            TOTAL IN =    21706033.7190              TOTAL IN =     3572867.7832

          OUT:                                     OUT:
          ----                                     ----
              STO-SS =           0.0000                STO-SS =           0.0000     STORAGE         
              STO-SY =    21155959.7020                STO-SY =     3249782.5041     STORAGE         
                 WEL =       80895.6443                   WEL =       13011.1839     WEL_0           
                 DRN =      469178.3727                   DRN =      310074.0951     DRN_0           
                 RCH =           0.0000                   RCH =           0.0000     RCH_0           

           TOTAL OUT =    21706033.7190             TOTAL OUT =     3572867.7832

            IN - OUT =       3.3863E-06              IN - OUT =       5.2201E-07

 PERCENT DISCREPANCY =           0.00     PERCENT DISCREPANCY =           0.00




         TIME SUMMARY AT END OF TIME STEP    1 IN STRESS PERIOD    6
                          TIME STEP LENGTH =    1.00000    
                        STRESS PERIOD TIME =    1.00000    
                     TOTAL SIMULATION TIME =    6.00000    

end timestep


start timestep kper="7" kstp="1" mode="normal"


 OUTPUT CONTROL FOR STRESS PERIOD 7 IS REPEATED USING SETTINGS FROM A PREVIOUS STRESS PERIOD.


 STRESS PERIOD 7 IS TRANSIENT


 REUSING WELS FROM LAST STRESS PERIOD

 REUSING DRNS FROM LAST STRESS PERIOD

 REUSING RCHS FROM LAST STRESS PERIOD


  VOLUME BUDGET FOR ENTIRE MODEL AT END OF TIME STEP    1, STRESS PERIOD   7
  ---------------------------------------------------------------------------------------------------

     CUMULATIVE VOLUME      L**3       RATES FOR THIS TIME STEP      L**3/T          PACKAGE NAME    
     ------------------                 ------------------------                     ----------------

           IN:                                      IN:
           ---                                      ---
              STO-SS =           0.0000                STO-SS =           0.0000     STORAGE         
              STO-SY =    25116785.5711                STO-SY =     3532848.6617     STORAGE         
                 WEL =           0.0000                   WEL =           0.0000     WEL_0           
                 DRN =           0.0000                   DRN =           0.0000     DRN_0           
                 RCH =      146331.6811                   RCH =       24234.8716     RCH_0           

            TOTAL IN =    25263117.2523              TOTAL IN =     3557083.5332

          OUT:                                     OUT:
          ----                                     ----
              STO-SS =           0.0000                STO-SS =           0.0000     STORAGE         
              STO-SY =    24143483.9711                STO-SY =     2987524.2691     STORAGE         
                 WEL =       93909.9433                   WEL =       13014.2991     WEL_0           
                 DRN =     1025723.3378                   DRN =      556544.9651     DRN_0           
                 RCH =           0.0000                   RCH =           0.0000     RCH_0           

           TOTAL OUT =    25263117.2522             TOTAL OUT =     3557083.5332

            IN - OUT =       3.2187E-06              IN - OUT =      -1.7043E-07

 PERCENT DISCREPANCY =           0.00     PERCENT DISCREPANCY =          -0.00




         TIME SUMMARY AT END OF TIME STEP    1 IN STRESS PERIOD    7
                          TIME STEP LENGTH =    1.00000    
                        STRESS PERIOD TIME =    1.00000    
                     TOTAL SIMULATION TIME =    7.00000    

end timestep


start timestep kper="8" kstp="1" mode="normal"


 OUTPUT CONTROL FOR STRESS PERIOD 8 IS REPEATED USING SETTINGS FROM A PREVIOUS STRESS PERIOD.


 STRESS PERIOD 8 IS TRANSIENT


 REUSING WELS FROM LAST STRESS PERIOD

 REUSING DRNS FROM LAST STRESS PERIOD

 REUSING RCHS FROM LAST STRESS PERIOD


  VOLUME BUDGET FOR ENTIRE MODEL AT END OF TIME STEP    1, STRESS PERIOD   8
  ---------------------------------------------------------------------------------------------------

     CUMULATIVE VOLUME      L**3       RATES FOR THIS TIME STEP      L**3/T          PACKAGE NAME    
     ------------------                 ------------------------                     ----------------

           IN:                                      IN:
           ---                                      ---
              STO-SS =           0.0000                STO-SS =           0.0000     STORAGE         
              STO-SY =    28627241.2469                STO-SY =     3510455.6758     STORAGE         
                 WEL =           0.0000                   WEL =           0.0000     WEL_0           
                 DRN =           0.0000                   DRN =           0.0000     DRN_0           
                 RCH =      178993.4884                   RCH =       32661.8073     RCH_0           

            TOTAL IN =    28806234.7354              TOTAL IN =     3543117.4831

          OUT:                                     OUT:
          ----                                     ----
              STO-SS =           0.0000                STO-SS =           0.0000     STORAGE         
              STO-SY =    26877189.4212                STO-SY =     2733705.4501     STORAGE         
                 WEL =      106925.4033                   WEL =       13015.4600     WEL_0           
                 DRN =     1822119.9109                   DRN =      796396.5730     DRN_0           
                 RCH =           0.0000                   RCH =           0.0000     RCH_0           

           TOTAL OUT =    28806234.7354             TOTAL OUT =     3543117.4831

            IN - OUT =       2.6040E-06              IN - OUT =      -6.1654E-07

 PERCENT DISCREPANCY =           0.00     PERCENT DISCREPANCY =          -0.00




         TIME SUMMARY AT END OF TIME STEP    1 IN STRESS PERIOD    8
                          TIME STEP LENGTH =    1.00000    
                        STRESS PERIOD TIME =    1.00000    
                     TOTAL SIMULATION TIME =    8.00000    

end timestep


start timestep kper="9" kstp="1" mode="normal"


 OUTPUT CONTROL FOR STRESS PERIOD 9 IS REPEATED USING SETTINGS FROM A PREVIOUS STRESS PERIOD.


 STRESS PERIOD 9 IS TRANSIENT


 REUSING WELS FROM LAST STRESS PERIOD

 REUSING DRNS FROM LAST STRESS PERIOD

 REUSING RCHS FROM LAST STRESS PERIOD


  VOLUME BUDGET FOR ENTIRE MODEL AT END OF TIME STEP    1, STRESS PERIOD   9
  ---------------------------------------------------------------------------------------------------

     CUMULATIVE VOLUME      L**3       RATES FOR THIS TIME STEP      L**3/T          PACKAGE NAME    
     ------------------                 ------------------------                     ----------------

           IN:                                      IN:
           ---                                      ---
              STO-SS =           0.0000                STO-SS =           0.0000     STORAGE         
              STO-SY =    32104915.6680                STO-SY =     3477674.4210     STORAGE         
                 WEL =           0.0000                   WEL =           0.0000     WEL_0           
                 DRN =           0.0000                   DRN =           0.0000     DRN_0           
                 RCH =      243196.7713                   RCH =       64203.2829     RCH_0           

            TOTAL IN =    32348112.4393              TOTAL IN =     3541877.7039

          OUT:                                     OUT:
          ----                                     ----
              STO-SS =           0.0000                STO-SS =           0.0000     STORAGE         
              STO-SY =    29422193.9606                STO-SY =     2545004.5394     STORAGE         
                 WEL =      119939.6862                   WEL =       13014.2829     WEL_0           
                 DRN =     2805978.7924                   DRN =      983858.8816     DRN_0           
                 RCH =           0.0000                   RCH =           0.0000     RCH_0           

           TOTAL OUT =    32348112.4392             TOTAL OUT =     3541877.7039

            IN - OUT =       3.1888E-06              IN - OUT =       5.8301E-07

 PERCENT DISCREPANCY =           0.00     PERCENT DISCREPANCY =           0.00




         TIME SUMMARY AT END OF TIME STEP    1 IN STRESS PERIOD    9
                          TIME STEP LENGTH =    1.00000    
                        STRESS PERIOD TIME =    1.00000    
                     TOTAL SIMULATION TIME =    9.00000    

end timestep


start timestep kper="10" kstp="1" mode="normal"


 OUTPUT CONTROL FOR STRESS PERIOD 10 IS REPEATED USING SETTINGS FROM A PREVIOUS STRESS PERIOD.


 STRESS PERIOD 10 IS TRANSIENT


 REUSING WELS FROM LAST STRESS PERIOD

 REUSING DRNS FROM LAST STRESS PERIOD

 REUSING RCHS FROM LAST STRESS PERIOD


  VOLUME BUDGET FOR ENTIRE MODEL AT END OF TIME STEP    1, STRESS PERIOD  10
  ---------------------------------------------------------------------------------------------------

     CUMULATIVE VOLUME      L**3       RATES FOR THIS TIME STEP      L**3/T          PACKAGE NAME    
     ------------------                 ------------------------                     ----------------

           IN:                                      IN:
           ---                                      ---
              STO-SS =           0.0000                STO-SS =           0.0000     STORAGE         
              STO-SY =    35564616.2801                STO-SY =     3459700.6122     STORAGE         
                 WEL =           0.0000                   WEL =           0.0000     WEL_0           
                 DRN =           0.0000                   DRN =           0.0000     DRN_0           
                 RCH =      312394.3880                   RCH =       69197.6167     RCH_0           

            TOTAL IN =    35877010.6681              TOTAL IN =     3528898.2289

          OUT:                                     OUT:
          ----                                     ----
              STO-SS =           0.0000                STO-SS =           0.0000     STORAGE         
              STO-SY =    31649744.0545                STO-SY =     2227550.0939     STORAGE         
                 WEL =      132955.4175                   WEL =       13015.7313     WEL_0           
                 DRN =     4094311.1961                   DRN =     1288332.4037     DRN_0           
                 RCH =           0.0000                   RCH =           0.0000     RCH_0           

           TOTAL OUT =    35877010.6681             TOTAL OUT =     3528898.2289

            IN - OUT =       5.2750E-06              IN - OUT =       2.0904E-06

 PERCENT DISCREPANCY =           0.00     PERCENT DISCREPANCY =           0.00




         TIME SUMMARY AT END OF TIME STEP    1 IN STRESS PERIOD   10
                          TIME STEP LENGTH =    1.00000    
                        STRESS PERIOD TIME =    1.00000    
                     TOTAL SIMULATION TIME =    10.0000    

end timestep


start timestep kper="11" kstp="1" mode="normal"


 OUTPUT CONTROL FOR STRESS PERIOD 11 IS REPEATED USING SETTINGS FROM A PREVIOUS STRESS PERIOD.


 STRESS PERIOD 11 IS TRANSIENT


 REUSING WELS FROM LAST STRESS PERIOD

 REUSING DRNS FROM LAST STRESS PERIOD

 REUSING RCHS FROM LAST STRESS PERIOD


  VOLUME BUDGET FOR ENTIRE MODEL AT END OF TIME STEP    1, STRESS PERIOD  11
  ---------------------------------------------------------------------------------------------------

     CUMULATIVE VOLUME      L**3       RATES FOR THIS TIME STEP      L**3/T          PACKAGE NAME    
     ------------------                 ------------------------                     ----------------

           IN:                                      IN:
           ---                                      ---
              STO-SS =           0.0000                STO-SS =           0.0000     STORAGE         
              STO-SY =    39000142.2843                STO-SY =     3435526.0042     STORAGE         
                 WEL =           0.0000                   WEL =           0.0000     WEL_0           
                 DRN =           0.0000                   DRN =           0.0000     DRN_0           
                 RCH =      398403.3122                   RCH =       86008.9242     RCH_0           

            TOTAL IN =    39398545.5965              TOTAL IN =     3521534.9284

          OUT:                                     OUT:
          ----                                     ----
              STO-SS =           0.0000                STO-SS =           0.0000     STORAGE         
              STO-SY =    33630005.6057                STO-SY =     1980261.5512     STORAGE         
                 WEL =      145894.4284                   WEL =       12939.0109     WEL_0           
                 DRN =     5622645.5623                   DRN =     1528334.3662     DRN_0           
                 RCH =           0.0000                   RCH =           0.0000     RCH_0           

           TOTAL OUT =    39398545.5965             TOTAL OUT =     3521534.9284

            IN - OUT =       5.6028E-06              IN - OUT =       3.2550E-07

 PERCENT DISCREPANCY =           0.00     PERCENT DISCREPANCY =           0.00




         TIME SUMMARY AT END OF TIME STEP    1 IN STRESS PERIOD   11
                          TIME STEP LENGTH =    1.00000    
                        STRESS PERIOD TIME =    1.00000    
                     TOTAL SIMULATION TIME =    11.0000    

end timestep


start timestep kper="12" kstp="1" mode="normal"


 OUTPUT CONTROL FOR STRESS PERIOD 12 IS REPEATED USING SETTINGS FROM A PREVIOUS STRESS PERIOD.


 STRESS PERIOD 12 IS TRANSIENT


 REUSING WELS FROM LAST STRESS PERIOD

 REUSING DRNS FROM LAST STRESS PERIOD

 REUSING RCHS FROM LAST STRESS PERIOD


  VOLUME BUDGET FOR ENTIRE MODEL AT END OF TIME STEP    1, STRESS PERIOD  12
  ---------------------------------------------------------------------------------------------------

     CUMULATIVE VOLUME      L**3       RATES FOR THIS TIME STEP      L**3/T          PACKAGE NAME    
     ------------------                 ------------------------                     ----------------

           IN:                                      IN:
           ---                                      ---
              STO-SS =           0.0000                STO-SS =           0.0000     STORAGE         
              STO-SY =    42416720.3164                STO-SY =     3416578.0321     STORAGE         
                 WEL =           0.0000                   WEL =           0.0000     WEL_0           
                 DRN =           0.0000                   DRN =           0.0000     DRN_0           
                 RCH =      493446.2554                   RCH =       95042.9433     RCH_0           

            TOTAL IN =    42910166.5719              TOTAL IN =     3511620.9754

          OUT:                                     OUT:
          ----                                     ----
              STO-SS =           0.0000                STO-SS =           0.0000     STORAGE         
              STO-SY =    35491632.3119                STO-SY =     1861626.7062     STORAGE         
                 WEL =      158706.8991                   WEL =       12812.4707     WEL_0           
                 DRN =     7259827.3608                   DRN =     1637181.7985     DRN_0           
                 RCH =           0.0000                   RCH =           0.0000     RCH_0           

           TOTAL OUT =    42910166.5719             TOTAL OUT =     3511620.9754

            IN - OUT =       4.7982E-06              IN - OUT =      -8.0559E-07

 PERCENT DISCREPANCY =           0.00     PERCENT DISCREPANCY =          -0.00




         TIME SUMMARY AT END OF TIME STEP    1 IN STRESS PERIOD   12
                          TIME STEP LENGTH =    1.00000    
                        STRESS PERIOD TIME =    1.00000    
                     TOTAL SIMULATION TIME =    12.0000    

end timestep


start timestep kper="13" kstp="1" mode="normal"


 OUTPUT CONTROL FOR STRESS PERIOD 13 IS REPEATED USING SETTINGS FROM A PREVIOUS STRESS PERIOD.


 STRESS PERIOD 13 IS TRANSIENT


 REUSING WELS FROM LAST STRESS PERIOD

 REUSING DRNS FROM LAST STRESS PERIOD

 REUSING RCHS FROM LAST STRESS PERIOD


  VOLUME BUDGET FOR ENTIRE MODEL AT END OF TIME STEP    1, STRESS PERIOD  13
  ---------------------------------------------------------------------------------------------------

     CUMULATIVE VOLUME      L**3       RATES FOR THIS TIME STEP      L**3/T          PACKAGE NAME    
     ------------------                 ------------------------                     ----------------

           IN:                                      IN:
           ---                                      ---
              STO-SS =           0.0000                STO-SS =           0.0000     STORAGE         
              STO-SY =    45807942.3694                STO-SY =     3391222.0530     STORAGE         
                 WEL =           0.0000                   WEL =           0.0000     WEL_0           
                 DRN =           0.0000                   DRN =           0.0000     DRN_0           
                 RCH =      608246.1440                   RCH =      114799.8886     RCH_0           

            TOTAL IN =    46416188.5135              TOTAL IN =     3506021.9416

          OUT:                                     OUT:
          ----                                     ----
              STO-SS =           0.0000                STO-SS =           0.0000     STORAGE         
              STO-SY =    37204524.9262                STO-SY =     1712892.6143     STORAGE         
                 WEL =      171501.6409                   WEL =       12794.7418     WEL_0           
                 DRN =     9040161.9464                   DRN =     1780334.5855     DRN_0           
                 RCH =           0.0000                   RCH =           0.0000     RCH_0           

           TOTAL OUT =    46416188.5135             TOTAL OUT =     3506021.9416

            IN - OUT =       5.2899E-06              IN - OUT =       4.8848E-07

 PERCENT DISCREPANCY =           0.00     PERCENT DISCREPANCY =           0.00




         TIME SUMMARY AT END OF TIME STEP    1 IN STRESS PERIOD   13
                          TIME STEP LENGTH =    1.00000    
                        STRESS PERIOD TIME =    1.00000    
                     TOTAL SIMULATION TIME =    13.0000    

end timestep


start timestep kper="14" kstp="1" mode="normal"


 OUTPUT CONTROL FOR STRESS PERIOD 14 IS REPEATED USING SETTINGS FROM A PREVIOUS STRESS PERIOD.


 STRESS PERIOD 14 IS TRANSIENT


 REUSING WELS FROM LAST STRESS PERIOD

 REUSING DRNS FROM LAST STRESS PERIOD

 REUSING RCHS FROM LAST STRESS PERIOD


  VOLUME BUDGET FOR ENTIRE MODEL AT END OF TIME STEP    1, STRESS PERIOD  14
  ---------------------------------------------------------------------------------------------------

     CUMULATIVE VOLUME      L**3       RATES FOR THIS TIME STEP      L**3/T          PACKAGE NAME    
     ------------------                 ------------------------                     ----------------

           IN:                                      IN:
           ---                                      ---
              STO-SS =           0.0000                STO-SS =           0.0000     STORAGE         
              STO-SY =    49172873.6960                STO-SY =     3364931.3266     STORAGE         
                 WEL =           0.0000                   WEL =           0.0000     WEL_0           
                 DRN =           0.0000                   DRN =           0.0000     DRN_0           
                 RCH =      747059.8233                   RCH =      138813.6792     RCH_0           

            TOTAL IN =    49919933.5193              TOTAL IN =     3503745.0058

          OUT:                                     OUT:
          ----                                     ----
              STO-SS =           0.0000                STO-SS =           0.0000     STORAGE         
              STO-SY =    38717576.5024                STO-SY =     1513051.5761     STORAGE         
                 WEL =      184270.7371                   WEL =       12769.0962     WEL_0           
                 DRN =    11018086.2798                   DRN =     1977924.3334     DRN_0           
                 RCH =           0.0000                   RCH =           0.0000     RCH_0           

           TOTAL OUT =    49919933.5193             TOTAL OUT =     3503745.0058

            IN - OUT =       5.2378E-06              IN - OUT =      -4.5635E-08

 PERCENT DISCREPANCY =           0.00     PERCENT DISCREPANCY =          -0.00




         TIME SUMMARY AT END OF TIME STEP    1 IN STRESS PERIOD   14
                          TIME STEP LENGTH =    1.00000    
                        STRESS PERIOD TIME =    1.00000    
                     TOTAL SIMULATION TIME =    14.0000    

end timestep


start timestep kper="15" kstp="1" mode="normal"


 OUTPUT CONTROL FOR STRESS PERIOD 15 IS REPEATED USING SETTINGS FROM A PREVIOUS STRESS PERIOD.


 STRESS PERIOD 15 IS TRANSIENT


 REUSING WELS FROM LAST STRESS PERIOD

 REUSING DRNS FROM LAST STRESS PERIOD

 REUSING RCHS FROM LAST STRESS PERIOD


  VOLUME BUDGET FOR ENTIRE MODEL AT END OF TIME STEP    1, STRESS PERIOD  15
  ---------------------------------------------------------------------------------------------------

     CUMULATIVE VOLUME      L**3       RATES FOR THIS TIME STEP      L**3/T          PACKAGE NAME    
     ------------------                 ------------------------                     ----------------

           IN:                                      IN:
           ---                                      ---
              STO-SS =           0.0000                STO-SS =           0.0000     STORAGE         
              STO-SY =    52503403.4572                STO-SY =     3330529.7612     STORAGE         
                 WEL =           0.0000                   WEL =           0.0000     WEL_0           
                 DRN =           0.0000                   DRN =           0.0000     DRN_0           
                 RCH =      923250.6028                   RCH =      176190.7795     RCH_0           

            TOTAL IN =    53426654.0600              TOTAL IN =     3506720.5407

          OUT:                                     OUT:
          ----                                     ----
              STO-SS =           0.0000                STO-SS =           0.0000     STORAGE         
              STO-SY =    40100025.3206                STO-SY =     1382448.8182     STORAGE         
                 WEL =      196856.6949                   WEL =       12585.9578     WEL_0           
                 DRN =    13129772.0445                   DRN =     2111685.7648     DRN_0           
                 RCH =           0.0000                   RCH =           0.0000     RCH_0           

           TOTAL OUT =    53426654.0600             TOTAL OUT =     3506720.5407

            IN - OUT =       5.0962E-06              IN - OUT =      -1.4948E-07

 PERCENT DISCREPANCY =           0.00     PERCENT DISCREPANCY =          -0.00




         TIME SUMMARY AT END OF TIME STEP    1 IN STRESS PERIOD   15
                          TIME STEP LENGTH =    1.00000    
                        STRESS PERIOD TIME =    1.00000    
                     TOTAL SIMULATION TIME =    15.0000    

end timestep


start timestep kper="16" kstp="1" mode="normal"


 OUTPUT CONTROL FOR STRESS PERIOD 16 IS REPEATED USING SETTINGS FROM A PREVIOUS STRESS PERIOD.


 STRESS PERIOD 16 IS TRANSIENT


 REUSING WELS FROM LAST STRESS PERIOD

 REUSING DRNS FROM LAST STRESS PERIOD

 REUSING RCHS FROM LAST STRESS PERIOD


  VOLUME BUDGET FOR ENTIRE MODEL AT END OF TIME STEP    1, STRESS PERIOD  16
  ---------------------------------------------------------------------------------------------------

     CUMULATIVE VOLUME      L**3       RATES FOR THIS TIME STEP      L**3/T          PACKAGE NAME    
     ------------------                 ------------------------                     ----------------

           IN:                                      IN:
           ---                                      ---
              STO-SS =           0.0000                STO-SS =           0.0000     STORAGE         
              STO-SY =    55798926.4577                STO-SY =     3295523.0005     STORAGE         
                 WEL =           0.0000                   WEL =           0.0000     WEL_0           
                 DRN =           0.0000                   DRN =           0.0000     DRN_0           
                 RCH =     1137397.3602                   RCH =      214146.7574     RCH_0           

            TOTAL IN =    56936323.8179              TOTAL IN =     3509669.7579

          OUT:                                     OUT:
          ----                                     ----
              STO-SS =           0.0000                STO-SS =           0.0000     STORAGE         
              STO-SY =    41392124.4983                STO-SY =     1292099.1777     STORAGE         
                 WEL =      209401.4277                   WEL =       12544.7328     WEL_0           
                 DRN =    15334797.8919                   DRN =     2205025.8474     DRN_0           
                 RCH =           0.0000                   RCH =           0.0000     RCH_0           

           TOTAL OUT =    56936323.8179             TOTAL OUT =     3509669.7579

            IN - OUT =       5.5954E-06              IN - OUT =       5.0385E-07

 PERCENT DISCREPANCY =           0.00     PERCENT DISCREPANCY =           0.00




         TIME SUMMARY AT END OF TIME STEP    1 IN STRESS PERIOD   16
                          TIME STEP LENGTH =    1.00000    
                        STRESS PERIOD TIME =    1.00000    
                     TOTAL SIMULATION TIME =    16.0000    

end timestep


start timestep kper="17" kstp="1" mode="normal"


 OUTPUT CONTROL FOR STRESS PERIOD 17 IS REPEATED USING SETTINGS FROM A PREVIOUS STRESS PERIOD.


 STRESS PERIOD 17 IS TRANSIENT


 REUSING WELS FROM LAST STRESS PERIOD

 REUSING DRNS FROM LAST STRESS PERIOD

 REUSING RCHS FROM LAST STRESS PERIOD


  VOLUME BUDGET FOR ENTIRE MODEL AT END OF TIME STEP    1, STRESS PERIOD  17
  ---------------------------------------------------------------------------------------------------

     CUMULATIVE VOLUME      L**3       RATES FOR THIS TIME STEP      L**3/T          PACKAGE NAME    
     ------------------                 ------------------------                     ----------------

           IN:                                      IN:
           ---                                      ---
              STO-SS =           0.0000                STO-SS =           0.0000     STORAGE         
              STO-SY =    59081822.8109                STO-SY =     3282896.3532     STORAGE         
                 WEL =           0.0000                   WEL =           0.0000     WEL_0           
                 DRN =           0.0000                   DRN =           0.0000     DRN_0           
                 RCH =     1368396.5052                   RCH =      230999.1450     RCH_0           

            TOTAL IN =    60450219.3161              TOTAL IN =     3513895.4982

          OUT:                                     OUT:
          ----                                     ----
              STO-SS =           0.0000                STO-SS =           0.0000     STORAGE         
              STO-SY =    42622715.0699                STO-SY =     1230590.5716     STORAGE         
                 WEL =      221909.2532                   WEL =       12507.8256     WEL_0           
                 DRN =    17605594.9930                   DRN =     2270797.1010     DRN_0           
                 RCH =           0.0000                   RCH =           0.0000     RCH_0           

           TOTAL OUT =    60450219.3161             TOTAL OUT =     3513895.4982

            IN - OUT =       4.0010E-06              IN - OUT =      -1.5846E-06

 PERCENT DISCREPANCY =           0.00     PERCENT DISCREPANCY =          -0.00




         TIME SUMMARY AT END OF TIME STEP    1 IN STRESS PERIOD   17
                          TIME STEP LENGTH =    1.00000    
                        STRESS PERIOD TIME =    1.00000    
                     TOTAL SIMULATION TIME =    17.0000    

end timestep


start timestep kper="18" kstp="1" mode="normal"


 OUTPUT CONTROL FOR STRESS PERIOD 18 IS REPEATED USING SETTINGS FROM A PREVIOUS STRESS PERIOD.


 STRESS PERIOD 18 IS TRANSIENT


 REUSING WELS FROM LAST STRESS PERIOD

 REUSING DRNS FROM LAST STRESS PERIOD

 REUSING RCHS FROM LAST STRESS PERIOD


  VOLUME BUDGET FOR ENTIRE MODEL AT END OF TIME STEP    1, STRESS PERIOD  18
  ---------------------------------------------------------------------------------------------------

     CUMULATIVE VOLUME      L**3       RATES FOR THIS TIME STEP      L**3/T          PACKAGE NAME    
     ------------------                 ------------------------                     ----------------

           IN:                                      IN:
           ---                                      ---
              STO-SS =           0.0000                STO-SS =           0.0000     STORAGE         
              STO-SY =    62335756.2273                STO-SY =     3253933.4163     STORAGE         
                 WEL =           0.0000                   WEL =           0.0000     WEL_0           
                 DRN =           0.0000                   DRN =           0.0000     DRN_0           
                 RCH =     1636222.2069                   RCH =      267825.7017     RCH_0           

            TOTAL IN =    63971978.4341              TOTAL IN =     3521759.1180

          OUT:                                     OUT:
          ----                                     ----
              STO-SS =           0.0000                STO-SS =           0.0000     STORAGE         
              STO-SY =    43791632.0665                STO-SY =     1168916.9966     STORAGE         
                 WEL =      234358.1205                   WEL =       12448.8673     WEL_0           
                 DRN =    19945988.2471                   DRN =     2340393.2541     DRN_0           
                 RCH =           0.0000                   RCH =           0.0000     RCH_0           

           TOTAL OUT =    63971978.4341             TOTAL OUT =     3521759.1180

            IN - OUT =       3.7923E-06              IN - OUT =      -2.0256E-07

 PERCENT DISCREPANCY =           0.00     PERCENT DISCREPANCY =          -0.00




         TIME SUMMARY AT END OF TIME STEP    1 IN STRESS PERIOD   18
                          TIME STEP LENGTH =    1.00000    
                        STRESS PERIOD TIME =    1.00000    
                     TOTAL SIMULATION TIME =    18.0000    

end timestep


start timestep kper="19" kstp="1" mode="normal"


 OUTPUT CONTROL FOR STRESS PERIOD 19 IS REPEATED USING SETTINGS FROM A PREVIOUS STRESS PERIOD.


 STRESS PERIOD 19 IS TRANSIENT


 REUSING WELS FROM LAST STRESS PERIOD

 REUSING DRNS FROM LAST STRESS PERIOD

 REUSING RCHS FROM LAST STRESS PERIOD


  VOLUME BUDGET FOR ENTIRE MODEL AT END OF TIME STEP    1, STRESS PERIOD  19
  ---------------------------------------------------------------------------------------------------

     CUMULATIVE VOLUME      L**3       RATES FOR THIS TIME STEP      L**3/T          PACKAGE NAME    
     ------------------                 ------------------------                     ----------------

           IN:                                      IN:
           ---                                      ---
              STO-SS =           0.0000                STO-SS =           0.0000     STORAGE         
              STO-SY =    65561408.4569                STO-SY =     3225652.2296     STORAGE         
                 WEL =           0.0000                   WEL =           0.0000     WEL_0           
                 DRN =           0.0000                   DRN =           0.0000     DRN_0           
                 RCH =     1931447.0926                   RCH =      295224.8857     RCH_0           

            TOTAL IN =    67492855.5495              TOTAL IN =     3520877.1153

          OUT:                                     OUT:
          ----                                     ----
              STO-SS =           0.0000                STO-SS =           0.0000     STORAGE         
              STO-SY =    44877057.6874                STO-SY =     1085425.6209     STORAGE         
                 WEL =      246774.8501                   WEL =       12416.7296     WEL_0           
                 DRN =    22369023.0120                   DRN =     2423034.7649     DRN_0           
                 RCH =           0.0000                   RCH =           0.0000     RCH_0           

           TOTAL OUT =    67492855.5495             TOTAL OUT =     3520877.1153

            IN - OUT =       3.0249E-06              IN - OUT =      -7.7579E-07

 PERCENT DISCREPANCY =           0.00     PERCENT DISCREPANCY =          -0.00




         TIME SUMMARY AT END OF TIME STEP    1 IN STRESS PERIOD   19
                          TIME STEP LENGTH =    1.00000    
                        STRESS PERIOD TIME =    1.00000    
                     TOTAL SIMULATION TIME =    19.0000    

end timestep


start timestep kper="20" kstp="1" mode="normal"


 OUTPUT CONTROL FOR STRESS PERIOD 20 IS REPEATED USING SETTINGS FROM A PREVIOUS STRESS PERIOD.


 STRESS PERIOD 20 IS TRANSIENT


 REUSING WELS FROM LAST STRESS PERIOD

 REUSING DRNS FROM LAST STRESS PERIOD

 REUSING RCHS FROM LAST STRESS PERIOD


  VOLUME BUDGET FOR ENTIRE MODEL AT END OF TIME STEP    1, STRESS PERIOD  20
  ---------------------------------------------------------------------------------------------------

     CUMULATIVE VOLUME      L**3       RATES FOR THIS TIME STEP      L**3/T          PACKAGE NAME    
     ------------------                 ------------------------                     ----------------

           IN:                                      IN:
           ---                                      ---
              STO-SS =           0.0000                STO-SS =           0.0000     STORAGE         
              STO-SY =    68770630.6001                STO-SY =     3209222.1432     STORAGE         
                 WEL =           0.0000                   WEL =           0.0000     WEL_0           
                 DRN =           0.0000                   DRN =           0.0000     DRN_0           
                 RCH =     2253872.3121                   RCH =      322425.2196     RCH_0           

            TOTAL IN =    71024502.9122              TOTAL IN =     3531647.3627

          OUT:                                     OUT:
          ----                                     ----
              STO-SS =           0.0000                STO-SS =           0.0000     STORAGE         
              STO-SY =    45867056.4786                STO-SY =      989998.7912     STORAGE         
                 WEL =      259084.9828                   WEL =       12310.1327     WEL_0           
                 DRN =    24898361.4508                   DRN =     2529338.4388     DRN_0           
                 RCH =           0.0000                   RCH =           0.0000     RCH_0           

           TOTAL OUT =    71024502.9122             TOTAL OUT =     3531647.3627

            IN - OUT =       2.9951E-06              IN - OUT =      -3.8650E-08

 PERCENT DISCREPANCY =           0.00     PERCENT DISCREPANCY =          -0.00




         TIME SUMMARY AT END OF TIME STEP    1 IN STRESS PERIOD   20
                          TIME STEP LENGTH =    1.00000    
                        STRESS PERIOD TIME =    1.00000    
                     TOTAL SIMULATION TIME =    20.0000    

end timestep


start timestep kper="21" kstp="1" mode="normal"


 OUTPUT CONTROL FOR STRESS PERIOD 21 IS REPEATED USING SETTINGS FROM A PREVIOUS STRESS PERIOD.


 STRESS PERIOD 21 IS TRANSIENT


 REUSING WELS FROM LAST STRESS PERIOD

 REUSING DRNS FROM LAST STRESS PERIOD

 REUSING RCHS FROM LAST STRESS PERIOD


  VOLUME BUDGET FOR ENTIRE MODEL AT END OF TIME STEP    1, STRESS PERIOD  21
  ---------------------------------------------------------------------------------------------------

     CUMULATIVE VOLUME      L**3       RATES FOR THIS TIME STEP      L**3/T          PACKAGE NAME    
     ------------------                 ------------------------                     ----------------

           IN:                                      IN:
           ---                                      ---
              STO-SS =           0.0000                STO-SS =           0.0000     STORAGE         
              STO-SY =    71961129.0358                STO-SY =     3190498.4357     STORAGE         
                 WEL =           0.0000                   WEL =           0.0000     WEL_0           
                 DRN =           0.0000                   DRN =           0.0000     DRN_0           
                 RCH =     2603546.1341                   RCH =      349673.8220     RCH_0           

            TOTAL IN =    74564675.1699              TOTAL IN =     3540172.2577

          OUT:                                     OUT:
          ----                                     ----
              STO-SS =           0.0000                STO-SS =           0.0000     STORAGE         
              STO-SY =    46790095.7982                STO-SY =      923039.3196     STORAGE         
                 WEL =      271440.2515                   WEL =       12355.2688     WEL_0           
                 DRN =    27503139.1202                   DRN =     2604777.6694     DRN_0           
                 RCH =           0.0000                   RCH =           0.0000     RCH_0           

           TOTAL OUT =    74564675.1699             TOTAL OUT =     3540172.2577

            IN - OUT =       3.5167E-06              IN - OUT =       5.3504E-07

 PERCENT DISCREPANCY =           0.00     PERCENT DISCREPANCY =           0.00




         TIME SUMMARY AT END OF TIME STEP    1 IN STRESS PERIOD   21
                          TIME STEP LENGTH =    1.00000    
                        STRESS PERIOD TIME =    1.00000    
                     TOTAL SIMULATION TIME =    21.0000    

end timestep


start timestep kper="22" kstp="1" mode="normal"


 OUTPUT CONTROL FOR STRESS PERIOD 22 IS REPEATED USING SETTINGS FROM A PREVIOUS STRESS PERIOD.


 STRESS PERIOD 22 IS TRANSIENT


 REUSING WELS FROM LAST STRESS PERIOD

 REUSING DRNS FROM LAST STRESS PERIOD

 REUSING RCHS FROM LAST STRESS PERIOD


  VOLUME BUDGET FOR ENTIRE MODEL AT END OF TIME STEP    1, STRESS PERIOD  22
  ---------------------------------------------------------------------------------------------------

     CUMULATIVE VOLUME      L**3       RATES FOR THIS TIME STEP      L**3/T          PACKAGE NAME    
     ------------------                 ------------------------                     ----------------

           IN:                                      IN:
           ---                                      ---
              STO-SS =           0.0000                STO-SS =           0.0000     STORAGE         
              STO-SY =    75109639.2598                STO-SY =     3148510.2240     STORAGE         
                 WEL =           0.0000                   WEL =           0.0000     WEL_0           
                 DRN =           0.0000                   DRN =           0.0000     DRN_0           
                 RCH =     3008646.2539                   RCH =      405100.1198     RCH_0           

            TOTAL IN =    78118285.5137              TOTAL IN =     3553610.3438

          OUT:                                     OUT:
          ----                                     ----
              STO-SS =           0.0000                STO-SS =           0.0000     STORAGE         
              STO-SY =    47682085.0575                STO-SY =      891989.2593     STORAGE         
                 WEL =      283726.4090                   WEL =       12286.1574     WEL_0           
                 DRN =    30152474.0473                   DRN =     2649334.9271     DRN_0           
                 RCH =           0.0000                   RCH =           0.0000     RCH_0           

           TOTAL OUT =    78118285.5137             TOTAL OUT =     3553610.3438

            IN - OUT =       3.9339E-06              IN - OUT =       4.2841E-07

 PERCENT DISCREPANCY =           0.00     PERCENT DISCREPANCY =           0.00




         TIME SUMMARY AT END OF TIME STEP    1 IN STRESS PERIOD   22
                          TIME STEP LENGTH =    1.00000    
                        STRESS PERIOD TIME =    1.00000    
                     TOTAL SIMULATION TIME =    22.0000    

end timestep


start timestep kper="23" kstp="1" mode="normal"


 OUTPUT CONTROL FOR STRESS PERIOD 23 IS REPEATED USING SETTINGS FROM A PREVIOUS STRESS PERIOD.


 STRESS PERIOD 23 IS TRANSIENT


 REUSING WELS FROM LAST STRESS PERIOD

 REUSING DRNS FROM LAST STRESS PERIOD

 REUSING RCHS FROM LAST STRESS PERIOD


  VOLUME BUDGET FOR ENTIRE MODEL AT END OF TIME STEP    1, STRESS PERIOD  23
  ---------------------------------------------------------------------------------------------------

     CUMULATIVE VOLUME      L**3       RATES FOR THIS TIME STEP      L**3/T          PACKAGE NAME    
     ------------------                 ------------------------                     ----------------

           IN:                                      IN:
           ---                                      ---
              STO-SS =           0.0000                STO-SS =           0.0000     STORAGE         
              STO-SY =    78264050.7893                STO-SY =     3154411.5295     STORAGE         
                 WEL =           0.0000                   WEL =           0.0000     WEL_0           
                 DRN =           0.0000                   DRN =           0.0000     DRN_0           
                 RCH =     3417760.5857                   RCH =      409114.3318     RCH_0           

            TOTAL IN =    81681811.3750              TOTAL IN =     3563525.8612

          OUT:                                     OUT:
          ----                                     ----
              STO-SS =           0.0000                STO-SS =           0.0000     STORAGE         
              STO-SY =    48536045.1482                STO-SY =      853960.0907     STORAGE         
                 WEL =      295960.4269                   WEL =       12234.0179     WEL_0           
                 DRN =    32849805.7999                   DRN =     2697331.7526     DRN_0           
                 RCH =           0.0000                   RCH =           0.0000     RCH_0           

           TOTAL OUT =    81681811.3749             TOTAL OUT =     3563525.8612

            IN - OUT =       3.3528E-06              IN - OUT =      -5.8394E-07

 PERCENT DISCREPANCY =           0.00     PERCENT DISCREPANCY =          -0.00




         TIME SUMMARY AT END OF TIME STEP    1 IN STRESS PERIOD   23
                          TIME STEP LENGTH =    1.00000    
                        STRESS PERIOD TIME =    1.00000    
                     TOTAL SIMULATION TIME =    23.0000    

end timestep


start timestep kper="24" kstp="1" mode="normal"


 OUTPUT CONTROL FOR STRESS PERIOD 24 IS REPEATED USING SETTINGS FROM A PREVIOUS STRESS PERIOD.


 STRESS PERIOD 24 IS TRANSIENT


 REUSING WELS FROM LAST STRESS PERIOD

 REUSING DRNS FROM LAST STRESS PERIOD

 REUSING RCHS FROM LAST STRESS PERIOD


  VOLUME BUDGET FOR ENTIRE MODEL AT END OF TIME STEP    1, STRESS PERIOD  24
  ---------------------------------------------------------------------------------------------------

     CUMULATIVE VOLUME      L**3       RATES FOR THIS TIME STEP      L**3/T          PACKAGE NAME    
     ------------------                 ------------------------                     ----------------

           IN:                                      IN:
           ---                                      ---
              STO-SS =           0.0000                STO-SS =           0.0000     STORAGE         
              STO-SY =    81379714.6969                STO-SY =     3115663.9077     STORAGE         
                 WEL =           0.0000                   WEL =           0.0000     WEL_0           
                 DRN =           0.0000                   DRN =           0.0000     DRN_0           
                 RCH =     3871476.3457                   RCH =      453715.7600     RCH_0           

            TOTAL IN =    85251191.0427              TOTAL IN =     3569379.6677

          OUT:                                     OUT:
          ----                                     ----
              STO-SS =           0.0000                STO-SS =           0.0000     STORAGE         
              STO-SY =    49344654.6439                STO-SY =      808609.4957     STORAGE         
                 WEL =      308209.5322                   WEL =       12249.1053     WEL_0           
                 DRN =    35598326.8666                   DRN =     2748521.0667     DRN_0           
                 RCH =           0.0000                   RCH =           0.0000     RCH_0           

           TOTAL OUT =    85251191.0427             TOTAL OUT =     3569379.6677

            IN - OUT =       1.7881E-06              IN - OUT =      -1.5744E-06

 PERCENT DISCREPANCY =           0.00     PERCENT DISCREPANCY =          -0.00




         TIME SUMMARY AT END OF TIME STEP    1 IN STRESS PERIOD   24
                          TIME STEP LENGTH =    1.00000    
                        STRESS PERIOD TIME =    1.00000    
                     TOTAL SIMULATION TIME =    24.0000    

end timestep


start timestep kper="25" kstp="1" mode="normal"


 OUTPUT CONTROL FOR STRESS PERIOD 25 IS REPEATED USING SETTINGS FROM A PREVIOUS STRESS PERIOD.


 STRESS PERIOD 25 IS TRANSIENT


 REUSING WELS FROM LAST STRESS PERIOD

 REUSING DRNS FROM LAST STRESS PERIOD

 REUSING RCHS FROM LAST STRESS PERIOD


  VOLUME BUDGET FOR ENTIRE MODEL AT END OF TIME STEP    1, STRESS PERIOD  25
  ---------------------------------------------------------------------------------------------------

     CUMULATIVE VOLUME      L**3       RATES FOR THIS TIME STEP      L**3/T          PACKAGE NAME    
     ------------------                 ------------------------                     ----------------

           IN:                                      IN:
           ---                                      ---
              STO-SS =           0.0000                STO-SS =           0.0000     STORAGE         
              STO-SY =    84482983.0550                STO-SY =     3103268.3580     STORAGE         
                 WEL =           0.0000                   WEL =           0.0000     WEL_0           
                 DRN =           0.0000                   DRN =           0.0000     DRN_0           
                 RCH =     4354692.1044                   RCH =      483215.7586     RCH_0           

            TOTAL IN =    88837675.1593              TOTAL IN =     3586484.1166

          OUT:                                     OUT:
          ----                                     ----
              STO-SS =           0.0000                STO-SS =           0.0000     STORAGE         
              STO-SY =    50106623.7656                STO-SY =      761969.1217     STORAGE         
                 WEL =      320387.0827                   WEL =       12177.5505     WEL_0           
                 DRN =    38410664.3110                   DRN =     2812337.4444     DRN_0           
                 RCH =           0.0000                   RCH =           0.0000     RCH_0           

           TOTAL OUT =    88837675.1593             TOTAL OUT =     3586484.1166

            IN - OUT =       2.3842E-06              IN - OUT =       5.8115E-07

 PERCENT DISCREPANCY =           0.00     PERCENT DISCREPANCY =           0.00




         TIME SUMMARY AT END OF TIME STEP    1 IN STRESS PERIOD   25
                          TIME STEP LENGTH =    1.00000    
                        STRESS PERIOD TIME =    1.00000    
                     TOTAL SIMULATION TIME =    25.0000    

end timestep


start timestep kper="26" kstp="1" mode="normal"


 OUTPUT CONTROL FOR STRESS PERIOD 26 IS REPEATED USING SETTINGS FROM A PREVIOUS STRESS PERIOD.


 STRESS PERIOD 26 IS TRANSIENT


 REUSING WELS FROM LAST STRESS PERIOD

 REUSING DRNS FROM LAST STRESS PERIOD

 REUSING RCHS FROM LAST STRESS PERIOD


  VOLUME BUDGET FOR ENTIRE MODEL AT END OF TIME STEP    1, STRESS PERIOD  26
  ---------------------------------------------------------------------------------------------------

     CUMULATIVE VOLUME      L**3       RATES FOR THIS TIME STEP      L**3/T          PACKAGE NAME    
     ------------------                 ------------------------                     ----------------

           IN:                                      IN:
           ---                                      ---
              STO-SS =           0.0000                STO-SS =           0.0000     STORAGE         
              STO-SY =    87561113.9444                STO-SY =     3078130.8894     STORAGE         
                 WEL =           0.0000                   WEL =           0.0000     WEL_0           
                 DRN =           0.0000                   DRN =           0.0000     DRN_0           
                 RCH =     4864383.0980                   RCH =      509690.9936     RCH_0           

            TOTAL IN =    92425497.0423              TOTAL IN =     3587821.8830

          OUT:                                     OUT:
          ----                                     ----
              STO-SS =           0.0000                STO-SS =           0.0000     STORAGE         
              STO-SY =    50823756.9452                STO-SY =      717133.1796     STORAGE         
                 WEL =      332503.1296                   WEL =       12116.0469     WEL_0           
                 DRN =    41269236.9675                   DRN =     2858572.6565     DRN_0           
                 RCH =           0.0000                   RCH =           0.0000     RCH_0           

           TOTAL OUT =    92425497.0423             TOTAL OUT =     3587821.8830

            IN - OUT =       5.4389E-06              IN - OUT =       3.0492E-06

 PERCENT DISCREPANCY =           0.00     PERCENT DISCREPANCY =           0.00




         TIME SUMMARY AT END OF TIME STEP    1 IN STRESS PERIOD   26
                          TIME STEP LENGTH =    1.00000    
                        STRESS PERIOD TIME =    1.00000    
                     TOTAL SIMULATION TIME =    26.0000    

end timestep


start timestep kper="27" kstp="1" mode="normal"


 OUTPUT CONTROL FOR STRESS PERIOD 27 IS REPEATED USING SETTINGS FROM A PREVIOUS STRESS PERIOD.


 STRESS PERIOD 27 IS TRANSIENT


 REUSING WELS FROM LAST STRESS PERIOD

 REUSING DRNS FROM LAST STRESS PERIOD

 REUSING RCHS FROM LAST STRESS PERIOD


  VOLUME BUDGET FOR ENTIRE MODEL AT END OF TIME STEP    1, STRESS PERIOD  27
  ---------------------------------------------------------------------------------------------------

     CUMULATIVE VOLUME      L**3       RATES FOR THIS TIME STEP      L**3/T          PACKAGE NAME    
     ------------------                 ------------------------                     ----------------

           IN:                                      IN:
           ---                                      ---
              STO-SS =           0.0000                STO-SS =           0.0000     STORAGE         
              STO-SY =    90628318.0053                STO-SY =     3067204.0610     STORAGE         
                 WEL =           0.0000                   WEL =           0.0000     WEL_0           
                 DRN =           0.0000                   DRN =           0.0000     DRN_0           
                 RCH =     5391753.7189                   RCH =      527370.6209     RCH_0           

            TOTAL IN =    96020071.7242              TOTAL IN =     3594574.6818

          OUT:                                     OUT:
          ----                                     ----
              STO-SS =           0.0000                STO-SS =           0.0000     STORAGE         
              STO-SY =    51522125.0475                STO-SY =      698368.1023     STORAGE         
                 WEL =      344688.5032                   WEL =       12185.3736     WEL_0           
                 DRN =    44153258.1735                   DRN =     2884021.2060     DRN_0           
                 RCH =           0.0000                   RCH =           0.0000     RCH_0           

           TOTAL OUT =    96020071.7242             TOTAL OUT =     3594574.6818

            IN - OUT =       6.9439E-06              IN - OUT =       1.5255E-06

 PERCENT DISCREPANCY =           0.00     PERCENT DISCREPANCY =           0.00




         TIME SUMMARY AT END OF TIME STEP    1 IN STRESS PERIOD   27
                          TIME STEP LENGTH =    1.00000    
                        STRESS PERIOD TIME =    1.00000    
                     TOTAL SIMULATION TIME =    27.0000    

end timestep


start timestep kper="28" kstp="1" mode="normal"


 OUTPUT CONTROL FOR STRESS PERIOD 28 IS REPEATED USING SETTINGS FROM A PREVIOUS STRESS PERIOD.


 STRESS PERIOD 28 IS TRANSIENT


 REUSING WELS FROM LAST STRESS PERIOD

 REUSING DRNS FROM LAST STRESS PERIOD

 REUSING RCHS FROM LAST STRESS PERIOD


  VOLUME BUDGET FOR ENTIRE MODEL AT END OF TIME STEP    1, STRESS PERIOD  28
  ---------------------------------------------------------------------------------------------------

     CUMULATIVE VOLUME      L**3       RATES FOR THIS TIME STEP      L**3/T          PACKAGE NAME    
     ------------------                 ------------------------                     ----------------

           IN:                                      IN:
           ---                                      ---
              STO-SS =           0.0000                STO-SS =           0.0000     STORAGE         
              STO-SY =    93658402.1178                STO-SY =     3030084.1125     STORAGE         
                 WEL =           0.0000                   WEL =           0.0000     WEL_0           
                 DRN =           0.0000                   DRN =           0.0000     DRN_0           
                 RCH =     5955203.4558                   RCH =      563449.7369     RCH_0           

            TOTAL IN =    99613605.5735              TOTAL IN =     3593533.8494

          OUT:                                     OUT:
          ----                                     ----
              STO-SS =           0.0000                STO-SS =           0.0000     STORAGE         
              STO-SY =    52194668.1602                STO-SY =      672543.1127     STORAGE         
                 WEL =      356854.9945                   WEL =       12166.4913     WEL_0           
                 DRN =    47062082.4188                   DRN =     2908824.2453     DRN_0           
                 RCH =           0.0000                   RCH =           0.0000     RCH_0           

           TOTAL OUT =    99613605.5735             TOTAL OUT =     3593533.8494

            IN - OUT =       7.1377E-06              IN - OUT =       1.7369E-07

 PERCENT DISCREPANCY =           0.00     PERCENT DISCREPANCY =           0.00




         TIME SUMMARY AT END OF TIME STEP    1 IN STRESS PERIOD   28
                          TIME STEP LENGTH =    1.00000    
                        STRESS PERIOD TIME =    1.00000    
                     TOTAL SIMULATION TIME =    28.0000    

end timestep


start timestep kper="29" kstp="1" mode="normal"


 OUTPUT CONTROL FOR STRESS PERIOD 29 IS REPEATED USING SETTINGS FROM A PREVIOUS STRESS PERIOD.


 STRESS PERIOD 29 IS TRANSIENT


 REUSING WELS FROM LAST STRESS PERIOD

 REUSING DRNS FROM LAST STRESS PERIOD

 REUSING RCHS FROM LAST STRESS PERIOD


  VOLUME BUDGET FOR ENTIRE MODEL AT END OF TIME STEP    1, STRESS PERIOD  29
  ---------------------------------------------------------------------------------------------------

     CUMULATIVE VOLUME      L**3       RATES FOR THIS TIME STEP      L**3/T          PACKAGE NAME    
     ------------------                 ------------------------                     ----------------

           IN:                                      IN:
           ---                                      ---
              STO-SS =           0.0000                STO-SS =           0.0000     STORAGE         
              STO-SY =    96688820.1286                STO-SY =     3030418.0109     STORAGE         
                 WEL =           0.0000                   WEL =           0.0000     WEL_0           
                 DRN =           0.0000                   DRN =           0.0000     DRN_0           
                 RCH =     6533076.1483                   RCH =      577872.6925     RCH_0           

            TOTAL IN =   103221896.2769              TOTAL IN =     3608290.7034

          OUT:                                     OUT:
          ----                                     ----
              STO-SS =           0.0000                STO-SS =           0.0000     STORAGE         
              STO-SY =    52815803.4261                STO-SY =      621135.2658     STORAGE         
                 WEL =      368992.0623                   WEL =       12137.0678     WEL_0           
                 DRN =    50037100.7886                   DRN =     2975018.3698     DRN_0           
                 RCH =           0.0000                   RCH =           0.0000     RCH_0           

           TOTAL OUT =   103221896.2769             TOTAL OUT =     3608290.7034

            IN - OUT =       7.8678E-06              IN - OUT =       7.3016E-07

 PERCENT DISCREPANCY =           0.00     PERCENT DISCREPANCY =           0.00




         TIME SUMMARY AT END OF TIME STEP    1 IN STRESS PERIOD   29
                          TIME STEP LENGTH =    1.00000    
                        STRESS PERIOD TIME =    1.00000    
                     TOTAL SIMULATION TIME =    29.0000    

end timestep


start timestep kper="30" kstp="1" mode="normal"


 OUTPUT CONTROL FOR STRESS PERIOD 30 IS REPEATED USING SETTINGS FROM A PREVIOUS STRESS PERIOD.


 STRESS PERIOD 30 IS TRANSIENT


[...]

 REUSING DRNS FROM LAST STRESS PERIOD

 REUSING RCHS FROM LAST STRESS PERIOD


  VOLUME BUDGET FOR ENTIRE MODEL AT END OF TIME STEP    1, STRESS PERIOD 358
  ---------------------------------------------------------------------------------------------------

     CUMULATIVE VOLUME      L**3       RATES FOR THIS TIME STEP      L**3/T          PACKAGE NAME    
     ------------------                 ------------------------                     ----------------

           IN:                                      IN:
           ---                                      ---
              STO-SS =           0.0000                STO-SS =           0.0000     STORAGE         
              STO-SY =   864213053.8565                STO-SY =     1622288.0536     STORAGE         
                 WEL =           0.0000                   WEL =           0.0000     WEL_0           
                 DRN =           0.0000                   DRN =           0.0000     DRN_0           
                 RCH =   410248172.6559                   RCH =      992233.3272     RCH_0           

            TOTAL IN =  1274461226.5124              TOTAL IN =     2614521.3808

          OUT:                                     OUT:
          ----                                     ----
              STO-SS =           0.0000                STO-SS =           0.0000     STORAGE         
              STO-SY =    83843166.2239                STO-SY =       36613.7389     STORAGE         
                 WEL =   257672566.1802                   WEL =      432955.8646     WEL_0           
                 DRN =   932945492.1078                   DRN =     2144951.7772     DRN_0           
                 RCH =           0.0000                   RCH =           0.0000     RCH_0           

           TOTAL OUT =  1274461224.5119             TOTAL OUT =     2614521.3808

            IN - OUT =           2.0005              IN - OUT =       3.7486E-07

 PERCENT DISCREPANCY =           0.00     PERCENT DISCREPANCY =           0.00




         TIME SUMMARY AT END OF TIME STEP    1 IN STRESS PERIOD  358
                          TIME STEP LENGTH =    1.00000    
                        STRESS PERIOD TIME =    1.00000    
                     TOTAL SIMULATION TIME =    358.000    

end timestep


start timestep kper="359" kstp="1" mode="normal"


 OUTPUT CONTROL FOR STRESS PERIOD 359 IS REPEATED USING SETTINGS FROM A PREVIOUS STRESS PERIOD.


 STRESS PERIOD 359 IS TRANSIENT


 REUSING WELS FROM LAST STRESS PERIOD

 REUSING DRNS FROM LAST STRESS PERIOD

 REUSING RCHS FROM LAST STRESS PERIOD


  VOLUME BUDGET FOR ENTIRE MODEL AT END OF TIME STEP    1, STRESS PERIOD 359
  ---------------------------------------------------------------------------------------------------

     CUMULATIVE VOLUME      L**3       RATES FOR THIS TIME STEP      L**3/T          PACKAGE NAME    
     ------------------                 ------------------------                     ----------------

           IN:                                      IN:
           ---                                      ---
              STO-SS =           0.0000                STO-SS =           0.0000     STORAGE         
              STO-SY =   865743150.9728                STO-SY =     1530097.1163     STORAGE         
                 WEL =           0.0000                   WEL =           0.0000     WEL_0           
                 DRN =           0.0000                   DRN =           0.0000     DRN_0           
                 RCH =   411206185.2315                   RCH =      958012.5756     RCH_0           

            TOTAL IN =  1276949336.2043              TOTAL IN =     2488109.6919

          OUT:                                     OUT:
          ----                                     ----
              STO-SS =           0.0000                STO-SS =           0.0000     STORAGE         
              STO-SY =    83857343.2275                STO-SY =       14177.0037     STORAGE         
                 WEL =   258026733.7462                   WEL =      354167.5660     WEL_0           
                 DRN =   935065257.2300                   DRN =     2119765.1222     DRN_0           
                 RCH =           0.0000                   RCH =           0.0000     RCH_0           

           TOTAL OUT =  1276949334.2037             TOTAL OUT =     2488109.6919

            IN - OUT =           2.0005              IN - OUT =       1.5097E-06

 PERCENT DISCREPANCY =           0.00     PERCENT DISCREPANCY =           0.00




         TIME SUMMARY AT END OF TIME STEP    1 IN STRESS PERIOD  359
                          TIME STEP LENGTH =    1.00000    
                        STRESS PERIOD TIME =    1.00000    
                     TOTAL SIMULATION TIME =    359.000    

end timestep


start timestep kper="360" kstp="1" mode="normal"


 OUTPUT CONTROL FOR STRESS PERIOD 360 IS REPEATED USING SETTINGS FROM A PREVIOUS STRESS PERIOD.


 STRESS PERIOD 360 IS TRANSIENT


 REUSING WELS FROM LAST STRESS PERIOD

 REUSING DRNS FROM LAST STRESS PERIOD

 REUSING RCHS FROM LAST STRESS PERIOD


  VOLUME BUDGET FOR ENTIRE MODEL AT END OF TIME STEP    1, STRESS PERIOD 360
  ---------------------------------------------------------------------------------------------------

     CUMULATIVE VOLUME      L**3       RATES FOR THIS TIME STEP      L**3/T          PACKAGE NAME    
     ------------------                 ------------------------                     ----------------

           IN:                                      IN:
           ---                                      ---
              STO-SS =           0.0000                STO-SS =           0.0000     STORAGE         
              STO-SY =   867416733.5204                STO-SY =     1673582.5476     STORAGE         
                 WEL =           0.0000                   WEL =           0.0000     WEL_0           
                 DRN =           0.0000                   DRN =           0.0000     DRN_0           
                 RCH =   412189107.4546                   RCH =      982922.2231     RCH_0           

            TOTAL IN =  1279605840.9750              TOTAL IN =     2656504.7707

          OUT:                                     OUT:
          ----                                     ----
              STO-SS =           0.0000                STO-SS =           0.0000     STORAGE         
              STO-SY =    83894509.0201                STO-SY =       37165.7926     STORAGE         
                 WEL =   258506876.2654                   WEL =      480142.5193     WEL_0           
                 DRN =   937204453.6889                   DRN =     2139196.4589     DRN_0           
                 RCH =           0.0000                   RCH =           0.0000     RCH_0           

           TOTAL OUT =  1279605838.9745             TOTAL OUT =     2656504.7707

            IN - OUT =           2.0006              IN - OUT =       1.1153E-06

 PERCENT DISCREPANCY =           0.00     PERCENT DISCREPANCY =           0.00




         TIME SUMMARY AT END OF TIME STEP    1 IN STRESS PERIOD  360
                          TIME STEP LENGTH =    1.00000    
                        STRESS PERIOD TIME =    1.00000    
                     TOTAL SIMULATION TIME =    360.000    

end timestep


start timestep kper="361" kstp="1" mode="normal"


 OUTPUT CONTROL FOR STRESS PERIOD 361 IS REPEATED USING SETTINGS FROM A PREVIOUS STRESS PERIOD.


 STRESS PERIOD 361 IS TRANSIENT


 REUSING WELS FROM LAST STRESS PERIOD

 REUSING DRNS FROM LAST STRESS PERIOD

 REUSING RCHS FROM LAST STRESS PERIOD


  VOLUME BUDGET FOR ENTIRE MODEL AT END OF TIME STEP    1, STRESS PERIOD 361
  ---------------------------------------------------------------------------------------------------

     CUMULATIVE VOLUME      L**3       RATES FOR THIS TIME STEP      L**3/T          PACKAGE NAME    
     ------------------                 ------------------------                     ----------------

           IN:                                      IN:
           ---                                      ---
              STO-SS =           0.0000                STO-SS =           0.0000     STORAGE         
              STO-SY =   869073174.4873                STO-SY =     1656440.9669     STORAGE         
                 WEL =           0.0000                   WEL =           0.0000     WEL_0           
                 DRN =           0.0000                   DRN =           0.0000     DRN_0           
                 RCH =   413161415.8882                   RCH =      972308.4336     RCH_0           

            TOTAL IN =  1282234590.3755              TOTAL IN =     2628749.4005

          OUT:                                     OUT:
          ----                                     ----
              STO-SS =           0.0000                STO-SS =           0.0000     STORAGE         
              STO-SY =    83908850.0488                STO-SY =       14341.0287     STORAGE         
                 WEL =   259038944.3128                   WEL =      532068.0474     WEL_0           
                 DRN =   939286794.0133                   DRN =     2082340.3244     DRN_0           
                 RCH =           0.0000                   RCH =           0.0000     RCH_0           

           TOTAL OUT =  1282234588.3749             TOTAL OUT =     2628749.4005

            IN - OUT =           2.0006              IN - OUT =       1.9744E-07

 PERCENT DISCREPANCY =           0.00     PERCENT DISCREPANCY =           0.00




         TIME SUMMARY AT END OF TIME STEP    1 IN STRESS PERIOD  361
                          TIME STEP LENGTH =    1.00000    
                        STRESS PERIOD TIME =    1.00000    
                     TOTAL SIMULATION TIME =    361.000    

end timestep


start timestep kper="362" kstp="1" mode="normal"


 OUTPUT CONTROL FOR STRESS PERIOD 362 IS REPEATED USING SETTINGS FROM A PREVIOUS STRESS PERIOD.


 STRESS PERIOD 362 IS TRANSIENT


 REUSING WELS FROM LAST STRESS PERIOD

 REUSING DRNS FROM LAST STRESS PERIOD

 REUSING RCHS FROM LAST STRESS PERIOD


  VOLUME BUDGET FOR ENTIRE MODEL AT END OF TIME STEP    1, STRESS PERIOD 362
  ---------------------------------------------------------------------------------------------------

     CUMULATIVE VOLUME      L**3       RATES FOR THIS TIME STEP      L**3/T          PACKAGE NAME    
     ------------------                 ------------------------                     ----------------

           IN:                                      IN:
           ---                                      ---
              STO-SS =           0.0000                STO-SS =           0.0000     STORAGE         
              STO-SY =   870509073.7020                STO-SY =     1435899.2148     STORAGE         
                 WEL =           0.0000                   WEL =           0.0000     WEL_0           
                 DRN =           0.0000                   DRN =           0.0000     DRN_0           
                 RCH =   414112746.1189                   RCH =      951330.2307     RCH_0           

            TOTAL IN =  1284621819.8209              TOTAL IN =     2387229.4454

          OUT:                                     OUT:
          ----                                     ----
              STO-SS =           0.0000                STO-SS =           0.0000     STORAGE         
              STO-SY =    83952955.9051                STO-SY =       44105.8563     STORAGE         
                 WEL =   259216648.1203                   WEL =      177703.8075     WEL_0           
                 DRN =   941452213.3579                   DRN =     2165419.3447     DRN_0           
                 RCH =           0.0000                   RCH =           0.0000     RCH_0           

           TOTAL OUT =  1284621817.3833             TOTAL OUT =     2387229.0084

            IN - OUT =           2.4376              IN - OUT =           0.4370

 PERCENT DISCREPANCY =           0.00     PERCENT DISCREPANCY =           0.00




         TIME SUMMARY AT END OF TIME STEP    1 IN STRESS PERIOD  362
                          TIME STEP LENGTH =    1.00000    
                        STRESS PERIOD TIME =    1.00000    
                     TOTAL SIMULATION TIME =    362.000    

end timestep


start timestep kper="363" kstp="1" mode="normal"


 OUTPUT CONTROL FOR STRESS PERIOD 363 IS REPEATED USING SETTINGS FROM A PREVIOUS STRESS PERIOD.


 STRESS PERIOD 363 IS TRANSIENT


 REUSING WELS FROM LAST STRESS PERIOD

 REUSING DRNS FROM LAST STRESS PERIOD

 REUSING RCHS FROM LAST STRESS PERIOD


  VOLUME BUDGET FOR ENTIRE MODEL AT END OF TIME STEP    1, STRESS PERIOD 363
  ---------------------------------------------------------------------------------------------------

     CUMULATIVE VOLUME      L**3       RATES FOR THIS TIME STEP      L**3/T          PACKAGE NAME    
     ------------------                 ------------------------                     ----------------

           IN:                                      IN:
           ---                                      ---
              STO-SS =           0.0000                STO-SS =           0.0000     STORAGE         
              STO-SY =   872224479.6304                STO-SY =     1715405.9284     STORAGE         
                 WEL =           0.0000                   WEL =           0.0000     WEL_0           
                 DRN =           0.0000                   DRN =           0.0000     DRN_0           
                 RCH =   415071795.2026                   RCH =      959049.0838     RCH_0           

            TOTAL IN =  1287296274.8331              TOTAL IN =     2674455.0122

          OUT:                                     OUT:
          ----                                     ----
              STO-SS =           0.0000                STO-SS =           0.0000     STORAGE         
              STO-SY =    83961381.7354                STO-SY =        8425.8303     STORAGE         
                 WEL =   259799122.2699                   WEL =      582474.1496     WEL_0           
                 DRN =   943535768.3902                   DRN =     2083555.0322     DRN_0           
                 RCH =           0.0000                   RCH =           0.0000     RCH_0           

           TOTAL OUT =  1287296272.3955             TOTAL OUT =     2674455.0122

            IN - OUT =           2.4376              IN - OUT =      -1.2140E-06

 PERCENT DISCREPANCY =           0.00     PERCENT DISCREPANCY =          -0.00




         TIME SUMMARY AT END OF TIME STEP    1 IN STRESS PERIOD  363
                          TIME STEP LENGTH =    1.00000    
                        STRESS PERIOD TIME =    1.00000    
                     TOTAL SIMULATION TIME =    363.000    

end timestep


start timestep kper="364" kstp="1" mode="normal"


 OUTPUT CONTROL FOR STRESS PERIOD 364 IS REPEATED USING SETTINGS FROM A PREVIOUS STRESS PERIOD.


 STRESS PERIOD 364 IS TRANSIENT


 REUSING WELS FROM LAST STRESS PERIOD

 REUSING DRNS FROM LAST STRESS PERIOD

 REUSING RCHS FROM LAST STRESS PERIOD


  VOLUME BUDGET FOR ENTIRE MODEL AT END OF TIME STEP    1, STRESS PERIOD 364
  ---------------------------------------------------------------------------------------------------

     CUMULATIVE VOLUME      L**3       RATES FOR THIS TIME STEP      L**3/T          PACKAGE NAME    
     ------------------                 ------------------------                     ----------------

           IN:                                      IN:
           ---                                      ---
              STO-SS =           0.0000                STO-SS =           0.0000     STORAGE         
              STO-SY =   873653424.9918                STO-SY =     1428945.3613     STORAGE         
                 WEL =           0.0000                   WEL =           0.0000     WEL_0           
                 DRN =           0.0000                   DRN =           0.0000     DRN_0           
                 RCH =   416023859.4351                   RCH =      952064.2325     RCH_0           

            TOTAL IN =  1289677284.4269              TOTAL IN =     2381009.5938

          OUT:                                     OUT:
          ----                                     ----
              STO-SS =           0.0000                STO-SS =           0.0000     STORAGE         
              STO-SY =    84004213.6464                STO-SY =       42831.9110     STORAGE         
                 WEL =   259997521.3873                   WEL =      198399.1174     WEL_0           
                 DRN =   945675546.9556                   DRN =     2139778.5655     DRN_0           
                 RCH =           0.0000                   RCH =           0.0000     RCH_0           

           TOTAL OUT =  1289677281.9893             TOTAL OUT =     2381009.5938

            IN - OUT =           2.4376              IN - OUT =       1.0254E-06

 PERCENT DISCREPANCY =           0.00     PERCENT DISCREPANCY =           0.00




         TIME SUMMARY AT END OF TIME STEP    1 IN STRESS PERIOD  364
                          TIME STEP LENGTH =    1.00000    
                        STRESS PERIOD TIME =    1.00000    
                     TOTAL SIMULATION TIME =    364.000    

end timestep


start timestep kper="365" kstp="1" mode="normal"


 OUTPUT CONTROL FOR STRESS PERIOD 365 IS REPEATED USING SETTINGS FROM A PREVIOUS STRESS PERIOD.


 STRESS PERIOD 365 IS TRANSIENT


 REUSING WELS FROM LAST STRESS PERIOD

 REUSING DRNS FROM LAST STRESS PERIOD

 REUSING RCHS FROM LAST STRESS PERIOD


  VOLUME BUDGET FOR ENTIRE MODEL AT END OF TIME STEP    1, STRESS PERIOD 365
  ---------------------------------------------------------------------------------------------------

     CUMULATIVE VOLUME      L**3       RATES FOR THIS TIME STEP      L**3/T          PACKAGE NAME    
     ------------------                 ------------------------                     ----------------

           IN:                                      IN:
           ---                                      ---
              STO-SS =           0.0000                STO-SS =           0.0000     STORAGE         
              STO-SY =   875370662.5621                STO-SY =     1717237.5704     STORAGE         
                 WEL =           0.0000                   WEL =           0.0000     WEL_0           
                 DRN =           0.0000                   DRN =           0.0000     DRN_0           
                 RCH =   417000846.4758                   RCH =      976987.0407     RCH_0           

            TOTAL IN =  1292371509.0380              TOTAL IN =     2694224.6110

          OUT:                                     OUT:
          ----                                     ----
              STO-SS =           0.0000                STO-SS =           0.0000     STORAGE         
              STO-SY =    84017364.4655                STO-SY =       13150.8191     STORAGE         
                 WEL =   260585712.4584                   WEL =      588191.0711     WEL_0           
                 DRN =   947768429.6765                   DRN =     2092882.7208     DRN_0           
                 RCH =           0.0000                   RCH =           0.0000     RCH_0           

           TOTAL OUT =  1292371506.6004             TOTAL OUT =     2694224.6110

            IN - OUT =           2.4376              IN - OUT =       3.1302E-06

 PERCENT DISCREPANCY =           0.00     PERCENT DISCREPANCY =           0.00




         TIME SUMMARY AT END OF TIME STEP    1 IN STRESS PERIOD  365
                          TIME STEP LENGTH =    1.00000    
                        STRESS PERIOD TIME =    1.00000    
                     TOTAL SIMULATION TIME =    365.000    

end timestep

